<?xml version="1.0" encoding="UTF-8"?>

<!-- generated on 2026-01-21 02:08:16.683711 by randomTrips.py v1_18_0+0000-03ecfdea036
<configuration>
    <net-file value="C:\Users\91948\OneDrive\Desktop\latest\backend\sumo\networks\bangalore_hosmat\hosmat.net.xml"/>
    <route-file value="C:\Users\91948\OneDrive\Desktop\latest\backend\sumo\networks\bangalore_hosmat\episode_routes_fixed.rou.xml"/>
    <fringe-start-attributes value="departSpeed=&quot;max&quot;"/>
    <end value="5400.0"/>
    <period value="4.5"/>
</configuration>
-->

<routes xmlns:xsi="http://www.w3.org/2001/XMLSchema-instance" xsi:noNamespaceSchemaLocation="http://sumo.dlr.de/xsd/routes_file.xsd">
    <trip id="0" depart="0.00" from="E18" to="-E20"/>
    <trip id="1" depart="4.50" from="-E27" to="E16" departSpeed="max"/>
    <trip id="2" depart="9.00" from="E20" to="E22"/>
    <trip id="3" depart="13.50" from="E23" to="-E26"/>
    <trip id="4" depart="18.00" from="E15" to="-E20"/>
    <trip id="5" depart="22.50" from="-E27" to="E20" departSpeed="max"/>
    <trip id="6" depart="27.00" from="-E20" to="E15"/>
    <trip id="7" depart="31.50" from="E19" to="E20"/>
    <trip id="8" depart="36.00" from="-E27" to="E21" departSpeed="max"/>
    <trip id="9" depart="40.50" from="E22" to="-E20"/>
    <trip id="10" depart="45.00" from="E22" to="E22"/>
    <trip id="11" depart="49.50" from="E14" to="E15" departSpeed="max"/>
    <trip id="12" depart="54.00" from="E26" to="E17" departSpeed="max"/>
    <trip id="13" depart="58.50" from="-E21" to="-E26" departSpeed="max"/>
    <trip id="14" depart="63.00" from="E22" to="E21"/>
    <trip id="15" depart="67.50" from="E22" to="E23"/>
    <trip id="16" depart="72.00" from="E17" to="E27"/>
    <trip id="17" depart="76.50" from="E15" to="E20"/>
    <trip id="18" depart="81.00" from="E22" to="E21"/>
    <trip id="19" depart="85.50" from="E23" to="E21"/>
    <trip id="20" depart="90.00" from="E19" to="-E20"/>
    <trip id="21" depart="94.50" from="-E27" to="E17" departSpeed="max"/>
    <trip id="22" depart="99.00" from="-E21" to="E16" departSpeed="max"/>
    <trip id="23" depart="103.50" from="-E21" to="E16" departSpeed="max"/>
    <trip id="24" depart="108.00" from="E18" to="E18"/>
    <trip id="25" depart="112.50" from="E15" to="E15"/>
    <trip id="26" depart="117.00" from="-E27" to="E27" departSpeed="max"/>
    <trip id="27" depart="121.50" from="E19" to="E21"/>
    <trip id="28" depart="126.00" from="-E25" to="E23" departSpeed="max"/>
    <trip id="29" depart="130.50" from="-E25" to="E18" departSpeed="max"/>
    <trip id="30" depart="135.00" from="E26" to="E21" departSpeed="max"/>
    <trip id="31" depart="139.50" from="E17" to="E22"/>
    <trip id="32" depart="144.00" from="E22" to="E23"/>
    <trip id="33" depart="148.50" from="-E27" to="-E20" departSpeed="max"/>
    <trip id="34" depart="153.00" from="E14" to="E16" departSpeed="max"/>
    <trip id="35" depart="157.50" from="-E25" to="E27" departSpeed="max"/>
    <trip id="36" depart="162.00" from="E23" to="E17"/>
    <trip id="37" depart="166.50" from="E19" to="E18"/>
    <trip id="38" depart="171.00" from="E23" to="E19"/>
    <trip id="39" depart="175.50" from="-E27" to="E16" departSpeed="max"/>
    <trip id="40" depart="180.00" from="E17" to="E16"/>
    <trip id="41" depart="184.50" from="E18" to="E25"/>
    <trip id="42" depart="189.00" from="E15" to="E16"/>
    <trip id="43" depart="193.50" from="E26" to="E20" departSpeed="max"/>
    <trip id="44" depart="198.00" from="-E21" to="-E20" departSpeed="max"/>
    <trip id="45" depart="202.50" from="-E21" to="E21" departSpeed="max"/>
    <trip id="46" depart="207.00" from="E22" to="E18"/>
    <trip id="47" depart="211.50" from="-E20" to="E18"/>
    <trip id="48" depart="216.00" from="E26" to="E20" departSpeed="max"/>
    <trip id="49" depart="220.50" from="E26" to="E25" departSpeed="max"/>
    <trip id="50" depart="225.00" from="-E20" to="E23"/>
    <trip id="51" depart="229.50" from="E19" to="E20"/>
    <trip id="52" depart="234.00" from="-E27" to="E21" departSpeed="max"/>
    <trip id="53" depart="238.50" from="-E21" to="E19" departSpeed="max"/>
    <trip id="54" depart="243.00" from="E16" to="E27"/>
    <trip id="55" depart="247.50" from="E23" to="E16"/>
    <trip id="56" depart="252.00" from="E17" to="E15"/>
    <trip id="57" depart="256.50" from="E23" to="E25"/>
    <trip id="58" depart="261.00" from="E14" to="E21" departSpeed="max"/>
    <trip id="59" depart="265.50" from="E18" to="E15"/>
    <trip id="60" depart="270.00" from="E20" to="E20"/>
    <trip id="61" depart="274.50" from="E20" to="E20"/>
    <trip id="62" depart="279.00" from="-E20" to="E17"/>
    <trip id="63" depart="283.50" from="-E20" to="E27"/>
    <trip id="64" depart="288.00" from="E23" to="E24"/>
    <trip id="65" depart="292.50" from="E14" to="-E20" departSpeed="max"/>
    <trip id="66" depart="297.00" from="E23" to="E27"/>
    <trip id="67" depart="301.50" from="-E21" to="E19" departSpeed="max"/>
    <trip id="68" depart="306.00" from="-E20" to="E23"/>
    <trip id="69" depart="310.50" from="E20" to="-E26"/>
    <trip id="70" depart="315.00" from="E16" to="E20"/>
    <trip id="71" depart="319.50" from="-E27" to="E25" departSpeed="max"/>
    <trip id="72" depart="324.00" from="E15" to="E15"/>
    <trip id="73" depart="328.50" from="E17" to="E23"/>
    <trip id="74" depart="333.00" from="-E25" to="E17" departSpeed="max"/>
    <trip id="75" depart="337.50" from="E26" to="E22" departSpeed="max"/>
    <trip id="76" depart="342.00" from="E16" to="E20"/>
    <trip id="77" depart="346.50" from="-E21" to="E16" departSpeed="max"/>
    <trip id="78" depart="351.00" from="E14" to="E21" departSpeed="max"/>
    <trip id="79" depart="355.50" from="-E27" to="E16" departSpeed="max"/>
    <trip id="80" depart="360.00" from="-E20" to="E21"/>
    <trip id="81" depart="364.50" from="-E27" to="E25" departSpeed="max"/>
    <trip id="82" depart="369.00" from="E23" to="-E20"/>
    <trip id="83" depart="373.50" from="-E27" to="E22" departSpeed="max"/>
    <trip id="84" depart="378.00" from="-E25" to="-E26" departSpeed="max"/>
    <trip id="85" depart="382.50" from="E26" to="E20" departSpeed="max"/>
    <trip id="86" depart="387.00" from="E16" to="E23"/>
    <trip id="87" depart="391.50" from="E22" to="E15"/>
    <trip id="88" depart="396.00" from="-E21" to="E19" departSpeed="max"/>
    <trip id="89" depart="400.50" from="E15" to="E19"/>
    <trip id="90" depart="405.00" from="E20" to="E22"/>
    <trip id="91" depart="409.50" from="E26" to="-E26" departSpeed="max"/>
    <trip id="92" depart="414.00" from="E15" to="E17"/>
    <trip id="93" depart="418.50" from="E23" to="E16"/>
    <trip id="94" depart="423.00" from="-E25" to="E19" departSpeed="max"/>
    <trip id="95" depart="427.50" from="E15" to="E16"/>
    <trip id="96" depart="432.00" from="-E27" to="E25" departSpeed="max"/>
    <trip id="97" depart="436.50" from="E16" to="E25"/>
    <trip id="98" depart="441.00" from="E17" to="-E20"/>
    <trip id="99" depart="445.50" from="E26" to="E24" departSpeed="max"/>
    <trip id="100" depart="450.00" from="E26" to="E25" departSpeed="max"/>
    <trip id="101" depart="454.50" from="E22" to="E15"/>
    <trip id="102" depart="459.00" from="E16" to="E15"/>
    <trip id="103" depart="463.50" from="E15" to="-E20"/>
    <trip id="104" depart="468.00" from="E15" to="E27"/>
    <trip id="105" depart="472.50" from="-E27" to="E23" departSpeed="max"/>
    <trip id="106" depart="477.00" from="E16" to="E18"/>
    <trip id="107" depart="481.50" from="E26" to="E27" departSpeed="max"/>
    <trip id="108" depart="486.00" from="E17" to="E23"/>
    <trip id="109" depart="490.50" from="-E25" to="E17" departSpeed="max"/>
    <trip id="110" depart="495.00" from="E26" to="E21" departSpeed="max"/>
    <trip id="111" depart="499.50" from="E17" to="E23"/>
    <trip id="112" depart="504.00" from="-E20" to="E21"/>
    <trip id="113" depart="508.50" from="E17" to="E24"/>
    <trip id="114" depart="513.00" from="-E25" to="E27" departSpeed="max"/>
    <trip id="115" depart="517.50" from="-E21" to="E15" departSpeed="max"/>
    <trip id="116" depart="522.00" from="E18" to="E22"/>
    <trip id="117" depart="526.50" from="-E27" to="-E26" departSpeed="max"/>
    <trip id="118" depart="531.00" from="E23" to="E16"/>
    <trip id="119" depart="535.50" from="E18" to="E21"/>
    <trip id="120" depart="540.00" from="E15" to="E21"/>
    <trip id="121" depart="544.50" from="E17" to="E27"/>
    <trip id="122" depart="549.00" from="-E25" to="E23" departSpeed="max"/>
    <trip id="123" depart="553.50" from="-E27" to="E18" departSpeed="max"/>
    <trip id="124" depart="558.00" from="E19" to="E17"/>
    <trip id="125" depart="562.50" from="E14" to="E23" departSpeed="max"/>
    <trip id="126" depart="567.00" from="-E21" to="E19" departSpeed="max"/>
    <trip id="127" depart="571.50" from="E26" to="E27" departSpeed="max"/>
    <trip id="128" depart="576.00" from="-E21" to="E15" departSpeed="max"/>
    <trip id="129" depart="580.50" from="-E27" to="E27" departSpeed="max"/>
    <trip id="130" depart="585.00" from="E23" to="E25"/>
    <trip id="131" depart="589.50" from="E15" to="E15"/>
    <trip id="132" depart="594.00" from="E22" to="E22"/>
    <trip id="133" depart="598.50" from="E18" to="E27"/>
    <trip id="134" depart="603.00" from="E19" to="-E20"/>
    <trip id="135" depart="607.50" from="E22" to="E17"/>
    <trip id="136" depart="612.00" from="E19" to="E27"/>
    <trip id="137" depart="616.50" from="-E21" to="-E26" departSpeed="max"/>
    <trip id="138" depart="621.00" from="-E21" to="E20" departSpeed="max"/>
    <trip id="139" depart="625.50" from="-E27" to="E21" departSpeed="max"/>
    <trip id="140" depart="630.00" from="E20" to="E15"/>
    <trip id="141" depart="634.50" from="E18" to="E16"/>
    <trip id="142" depart="639.00" from="E16" to="E25"/>
    <trip id="143" depart="643.50" from="E22" to="-E26"/>
    <trip id="144" depart="648.00" from="E15" to="E16"/>
    <trip id="145" depart="652.50" from="-E20" to="E23"/>
    <trip id="146" depart="657.00" from="E18" to="E16"/>
    <trip id="147" depart="661.50" from="E20" to="E20"/>
    <trip id="148" depart="666.00" from="E15" to="-E20"/>
    <trip id="149" depart="670.50" from="-E21" to="E25" departSpeed="max"/>
    <trip id="150" depart="675.00" from="E23" to="E20"/>
    <trip id="151" depart="679.50" from="E22" to="E21"/>
    <trip id="152" depart="684.00" from="-E25" to="-E26" departSpeed="max"/>
    <trip id="153" depart="688.50" from="E14" to="E25" departSpeed="max"/>
    <trip id="154" depart="693.00" from="E22" to="E25"/>
    <trip id="155" depart="697.50" from="E23" to="E15"/>
    <trip id="156" depart="702.00" from="-E27" to="-E26" departSpeed="max"/>
    <trip id="157" depart="706.50" from="E20" to="E25"/>
    <trip id="158" depart="711.00" from="E15" to="E21"/>
    <trip id="159" depart="715.50" from="-E25" to="E27" departSpeed="max"/>
    <trip id="160" depart="720.00" from="E23" to="E27"/>
    <trip id="161" depart="724.50" from="E22" to="E25"/>
    <trip id="162" depart="729.00" from="-E20" to="E23"/>
    <trip id="163" depart="733.50" from="E14" to="E27" departSpeed="max"/>
    <trip id="164" depart="738.00" from="E22" to="E25"/>
    <trip id="165" depart="742.50" from="E22" to="E16"/>
    <trip id="166" depart="747.00" from="E22" to="-E26"/>
    <trip id="167" depart="751.50" from="E23" to="E25"/>
    <trip id="168" depart="756.00" from="-E27" to="E24" departSpeed="max"/>
    <trip id="169" depart="760.50" from="E16" to="E17"/>
    <trip id="170" depart="765.00" from="E22" to="E16"/>
    <trip id="171" depart="769.50" from="-E20" to="E15"/>
    <trip id="172" depart="774.00" from="E14" to="E25" departSpeed="max"/>
    <trip id="173" depart="778.50" from="E26" to="E16" departSpeed="max"/>
    <trip id="174" depart="783.00" from="E18" to="E18"/>
    <trip id="175" depart="787.50" from="E26" to="E20" departSpeed="max"/>
    <trip id="176" depart="792.00" from="E26" to="-E26" departSpeed="max"/>
    <trip id="177" depart="796.50" from="E26" to="E15" departSpeed="max"/>
    <trip id="178" depart="801.00" from="E26" to="E16" departSpeed="max"/>
    <trip id="179" depart="805.50" from="-E21" to="E19" departSpeed="max"/>
    <trip id="180" depart="810.00" from="E20" to="E17"/>
    <trip id="181" depart="814.50" from="E18" to="E20"/>
    <trip id="182" depart="819.00" from="E15" to="E21"/>
    <trip id="183" depart="823.50" from="-E27" to="E22" departSpeed="max"/>
    <trip id="184" depart="828.00" from="-E20" to="E25"/>
    <trip id="185" depart="832.50" from="E17" to="E23"/>
    <trip id="186" depart="837.00" from="E20" to="E22"/>
    <trip id="187" depart="841.50" from="E15" to="-E20"/>
    <trip id="188" depart="846.00" from="E19" to="E17"/>
    <trip id="189" depart="850.50" from="E14" to="E24" departSpeed="max"/>
    <trip id="190" depart="855.00" from="E20" to="E17"/>
    <trip id="191" depart="859.50" from="E14" to="E18" departSpeed="max"/>
    <trip id="192" depart="864.00" from="E15" to="E17"/>
    <trip id="193" depart="868.50" from="-E21" to="E18" departSpeed="max"/>
    <trip id="194" depart="873.00" from="E26" to="E22" departSpeed="max"/>
    <trip id="195" depart="877.50" from="E23" to="E21"/>
    <trip id="196" depart="882.00" from="E14" to="E20" departSpeed="max"/>
    <trip id="197" depart="886.50" from="-E20" to="E17"/>
    <trip id="198" depart="891.00" from="E16" to="E21"/>
    <trip id="199" depart="895.50" from="E19" to="E19"/>
    <trip id="200" depart="900.00" from="E16" to="E15"/>
    <trip id="201" depart="904.50" from="E16" to="E25"/>
    <trip id="202" depart="909.00" from="E22" to="E15"/>
    <trip id="203" depart="913.50" from="-E21" to="E20" departSpeed="max"/>
    <trip id="204" depart="918.00" from="E18" to="E17"/>
    <trip id="205" depart="922.50" from="E22" to="E23"/>
    <trip id="206" depart="927.00" from="E19" to="E16"/>
    <trip id="207" depart="931.50" from="-E25" to="-E20" departSpeed="max"/>
    <trip id="208" depart="936.00" from="-E27" to="E19" departSpeed="max"/>
    <trip id="209" depart="940.50" from="E22" to="-E26"/>
    <trip id="210" depart="945.00" from="E15" to="E21"/>
    <trip id="211" depart="949.50" from="-E25" to="E22" departSpeed="max"/>
    <trip id="212" depart="954.00" from="E16" to="E16"/>
    <trip id="213" depart="958.50" from="E19" to="-E20"/>
    <trip id="214" depart="963.00" from="E20" to="E23"/>
    <trip id="215" depart="967.50" from="-E21" to="E18" departSpeed="max"/>
    <trip id="216" depart="972.00" from="-E25" to="E27" departSpeed="max"/>
    <trip id="217" depart="976.50" from="E17" to="-E20"/>
    <trip id="218" depart="981.00" from="-E27" to="E24" departSpeed="max"/>
    <trip id="219" depart="985.50" from="E16" to="E24"/>
    <trip id="220" depart="990.00" from="E19" to="E27"/>
    <trip id="221" depart="994.50" from="E18" to="E27"/>
    <trip id="222" depart="999.00" from="E23" to="E21"/>
    <trip id="223" depart="1003.50" from="E20" to="E20"/>
    <trip id="224" depart="1008.00" from="E22" to="E20"/>
    <trip id="225" depart="1012.50" from="E23" to="E23"/>
    <trip id="226" depart="1017.00" from="E16" to="E16"/>
    <trip id="227" depart="1021.50" from="-E27" to="E21" departSpeed="max"/>
    <trip id="228" depart="1026.00" from="E20" to="E20"/>
    <trip id="229" depart="1030.50" from="E18" to="E16"/>
    <trip id="230" depart="1035.00" from="-E21" to="E17" departSpeed="max"/>
    <trip id="231" depart="1039.50" from="-E27" to="E17" departSpeed="max"/>
    <trip id="232" depart="1044.00" from="E17" to="-E26"/>
    <trip id="233" depart="1048.50" from="-E27" to="E22" departSpeed="max"/>
    <trip id="234" depart="1053.00" from="E19" to="-E20"/>
    <trip id="235" depart="1057.50" from="E15" to="E20"/>
    <trip id="236" depart="1062.00" from="E15" to="E15"/>
    <trip id="237" depart="1066.50" from="E15" to="E25"/>
    <trip id="238" depart="1071.00" from="E18" to="E22"/>
    <trip id="239" depart="1075.50" from="E22" to="E23"/>
    <trip id="240" depart="1080.00" from="E15" to="-E20"/>
    <trip id="241" depart="1084.50" from="E14" to="E23" departSpeed="max"/>
    <trip id="242" depart="1089.00" from="E22" to="E27"/>
    <trip id="243" depart="1093.50" from="E15" to="E23"/>
    <trip id="244" depart="1098.00" from="E17" to="E21"/>
    <trip id="245" depart="1102.50" from="-E27" to="E16" departSpeed="max"/>
    <trip id="246" depart="1107.00" from="E16" to="-E20"/>
    <trip id="247" depart="1111.50" from="E14" to="E22" departSpeed="max"/>
    <trip id="248" depart="1116.00" from="E15" to="E15"/>
    <trip id="249" depart="1120.50" from="E16" to="-E26"/>
    <trip id="250" depart="1125.00" from="E18" to="-E20"/>
    <trip id="251" depart="1129.50" from="E15" to="E20"/>
    <trip id="252" depart="1134.00" from="-E20" to="E21"/>
    <trip id="253" depart="1138.50" from="-E21" to="E19" departSpeed="max"/>
    <trip id="254" depart="1143.00" from="-E20" to="E18"/>
    <trip id="255" depart="1147.50" from="-E25" to="E17" departSpeed="max"/>
    <trip id="256" depart="1152.00" from="E20" to="E18"/>
    <trip id="257" depart="1156.50" from="E20" to="E24"/>
    <trip id="258" depart="1161.00" from="-E27" to="-E26" departSpeed="max"/>
    <trip id="259" depart="1165.50" from="-E20" to="E20"/>
    <trip id="260" depart="1170.00" from="E26" to="E17" departSpeed="max"/>
    <trip id="261" depart="1174.50" from="E19" to="E23"/>
    <trip id="262" depart="1179.00" from="E19" to="E23"/>
    <trip id="263" depart="1183.50" from="E26" to="E15" departSpeed="max"/>
    <trip id="264" depart="1188.00" from="-E20" to="E15"/>
    <trip id="265" depart="1192.50" from="-E21" to="E22" departSpeed="max"/>
    <trip id="266" depart="1197.00" from="E17" to="E16"/>
    <trip id="267" depart="1201.50" from="E19" to="E23"/>
    <trip id="268" depart="1206.00" from="-E25" to="E21" departSpeed="max"/>
    <trip id="269" depart="1210.50" from="E20" to="-E26"/>
    <trip id="270" depart="1215.00" from="E22" to="E27"/>
    <trip id="271" depart="1219.50" from="-E21" to="-E20" departSpeed="max"/>
    <trip id="272" depart="1224.00" from="E14" to="E22" departSpeed="max"/>
    <trip id="273" depart="1228.50" from="E26" to="E18" departSpeed="max"/>
    <trip id="274" depart="1233.00" from="E20" to="-E26"/>
    <trip id="275" depart="1237.50" from="E19" to="E21"/>
    <trip id="276" depart="1242.00" from="-E21" to="E23" departSpeed="max"/>
    <trip id="277" depart="1246.50" from="E22" to="E21"/>
    <trip id="278" depart="1251.00" from="-E21" to="E27" departSpeed="max"/>
    <trip id="279" depart="1255.50" from="E20" to="E17"/>
    <trip id="280" depart="1260.00" from="E15" to="E18"/>
    <trip id="281" depart="1264.50" from="E17" to="E17"/>
    <trip id="282" depart="1269.00" from="E22" to="E24"/>
    <trip id="283" depart="1273.50" from="-E21" to="E27" departSpeed="max"/>
    <trip id="284" depart="1278.00" from="E18" to="E24"/>
    <trip id="285" depart="1282.50" from="E19" to="E19"/>
    <trip id="286" depart="1287.00" from="E20" to="E27"/>
    <trip id="287" depart="1291.50" from="-E27" to="E24" departSpeed="max"/>
    <trip id="288" depart="1296.00" from="E17" to="E19"/>
    <trip id="289" depart="1300.50" from="E16" to="E23"/>
    <trip id="290" depart="1305.00" from="-E27" to="E24" departSpeed="max"/>
    <trip id="291" depart="1309.50" from="E22" to="-E26"/>
    <trip id="292" depart="1314.00" from="E23" to="E16"/>
    <trip id="293" depart="1318.50" from="E16" to="E21"/>
    <trip id="294" depart="1323.00" from="E15" to="-E20"/>
    <trip id="295" depart="1327.50" from="E22" to="E15"/>
    <trip id="296" depart="1332.00" from="-E25" to="E24" departSpeed="max"/>
    <trip id="297" depart="1336.50" from="E14" to="E25" departSpeed="max"/>
    <trip id="298" depart="1341.00" from="E19" to="E16"/>
    <trip id="299" depart="1345.50" from="-E20" to="E27"/>
    <trip id="300" depart="1350.00" from="-E21" to="E23" departSpeed="max"/>
    <trip id="301" depart="1354.50" from="E16" to="E23"/>
    <trip id="302" depart="1359.00" from="E19" to="E22"/>
    <trip id="303" depart="1363.50" from="E16" to="E24"/>
    <trip id="304" depart="1368.00" from="-E21" to="E16" departSpeed="max"/>
    <trip id="305" depart="1372.50" from="E19" to="E17"/>
    <trip id="306" depart="1377.00" from="E18" to="E19"/>
    <trip id="307" depart="1381.50" from="E17" to="E18"/>
    <trip id="308" depart="1386.00" from="E20" to="E17"/>
    <trip id="309" depart="1390.50" from="E19" to="E16"/>
    <trip id="310" depart="1395.00" from="-E27" to="-E26" departSpeed="max"/>
    <trip id="311" depart="1399.50" from="-E25" to="-E26" departSpeed="max"/>
    <trip id="312" depart="1404.00" from="E17" to="E23"/>
    <trip id="313" depart="1408.50" from="-E25" to="E16" departSpeed="max"/>
    <trip id="314" depart="1413.00" from="E16" to="E23"/>
    <trip id="315" depart="1417.50" from="E26" to="E20" departSpeed="max"/>
    <trip id="316" depart="1422.00" from="-E27" to="-E26" departSpeed="max"/>
    <trip id="317" depart="1426.50" from="-E25" to="E16" departSpeed="max"/>
    <trip id="318" depart="1431.00" from="-E25" to="-E20" departSpeed="max"/>
    <trip id="319" depart="1435.50" from="E17" to="E16"/>
    <trip id="320" depart="1440.00" from="E26" to="E20" departSpeed="max"/>
    <trip id="321" depart="1444.50" from="E19" to="-E26"/>
    <trip id="322" depart="1449.00" from="E23" to="E19"/>
    <trip id="323" depart="1453.50" from="E23" to="E21"/>
    <trip id="324" depart="1458.00" from="E16" to="E19"/>
    <trip id="325" depart="1462.50" from="-E25" to="-E20" departSpeed="max"/>
    <trip id="326" depart="1467.00" from="E26" to="E19" departSpeed="max"/>
    <trip id="327" depart="1471.50" from="E22" to="E18"/>
    <trip id="328" depart="1476.00" from="-E21" to="E21" departSpeed="max"/>
    <trip id="329" depart="1480.50" from="-E20" to="E15"/>
    <trip id="330" depart="1485.00" from="E17" to="E17"/>
    <trip id="331" depart="1489.50" from="E26" to="-E26" departSpeed="max"/>
    <trip id="332" depart="1494.00" from="E20" to="E21"/>
    <trip id="333" depart="1498.50" from="E22" to="E16"/>
    <trip id="334" depart="1503.00" from="E17" to="E19"/>
    <trip id="335" depart="1507.50" from="E16" to="E25"/>
    <trip id="336" depart="1512.00" from="E26" to="E17" departSpeed="max"/>
    <trip id="337" depart="1516.50" from="E18" to="E21"/>
    <trip id="338" depart="1521.00" from="E20" to="E27"/>
    <trip id="339" depart="1525.50" from="-E25" to="E15" departSpeed="max"/>
    <trip id="340" depart="1530.00" from="E19" to="E15"/>
    <trip id="341" depart="1534.50" from="-E25" to="-E26" departSpeed="max"/>
    <trip id="342" depart="1539.00" from="-E20" to="E19"/>
    <trip id="343" depart="1543.50" from="E18" to="E17"/>
    <trip id="344" depart="1548.00" from="-E27" to="E22" departSpeed="max"/>
    <trip id="345" depart="1552.50" from="E19" to="E19"/>
    <trip id="346" depart="1557.00" from="E19" to="E25"/>
    <trip id="347" depart="1561.50" from="E22" to="E21"/>
    <trip id="348" depart="1566.00" from="E19" to="E27"/>
    <trip id="349" depart="1570.50" from="E15" to="E20"/>
    <trip id="350" depart="1575.00" from="E19" to="E25"/>
    <trip id="351" depart="1579.50" from="E22" to="-E20"/>
    <trip id="352" depart="1584.00" from="-E25" to="E17" departSpeed="max"/>
    <trip id="353" depart="1588.50" from="E20" to="E20"/>
    <trip id="354" depart="1593.00" from="E14" to="-E26" departSpeed="max"/>
    <trip id="355" depart="1597.50" from="E19" to="E22"/>
    <trip id="356" depart="1602.00" from="E26" to="E20" departSpeed="max"/>
    <trip id="357" depart="1606.50" from="E16" to="-E26"/>
    <trip id="358" depart="1611.00" from="-E20" to="E19"/>
    <trip id="359" depart="1615.50" from="E14" to="E16" departSpeed="max"/>
    <trip id="360" depart="1620.00" from="-E21" to="E27" departSpeed="max"/>
    <trip id="361" depart="1624.50" from="E22" to="E21"/>
    <trip id="362" depart="1629.00" from="E26" to="E27" departSpeed="max"/>
    <trip id="363" depart="1633.50" from="E19" to="E16"/>
    <trip id="364" depart="1638.00" from="-E20" to="E23"/>
    <trip id="365" depart="1642.50" from="E16" to="E22"/>
    <trip id="366" depart="1647.00" from="E23" to="E15"/>
    <trip id="367" depart="1651.50" from="E18" to="E21"/>
    <trip id="368" depart="1656.00" from="E16" to="-E26"/>
    <trip id="369" depart="1660.50" from="E14" to="E17" departSpeed="max"/>
    <trip id="370" depart="1665.00" from="E19" to="E25"/>
    <trip id="371" depart="1669.50" from="E14" to="E22" departSpeed="max"/>
    <trip id="372" depart="1674.00" from="E14" to="E27" departSpeed="max"/>
    <trip id="373" depart="1678.50" from="E22" to="E20"/>
    <trip id="374" depart="1683.00" from="E16" to="E17"/>
    <trip id="375" depart="1687.50" from="E14" to="E27" departSpeed="max"/>
    <trip id="376" depart="1692.00" from="E15" to="E20"/>
    <trip id="377" depart="1696.50" from="E26" to="E22" departSpeed="max"/>
    <trip id="378" depart="1701.00" from="E17" to="E18"/>
    <trip id="379" depart="1705.50" from="-E25" to="E18" departSpeed="max"/>
    <trip id="380" depart="1710.00" from="E20" to="E21"/>
    <trip id="381" depart="1714.50" from="E20" to="E15"/>
    <trip id="382" depart="1719.00" from="E17" to="E25"/>
    <trip id="383" depart="1723.50" from="E16" to="E22"/>
    <trip id="384" depart="1728.00" from="-E21" to="E27" departSpeed="max"/>
    <trip id="385" depart="1732.50" from="E18" to="E16"/>
    <trip id="386" depart="1737.00" from="-E25" to="E20" departSpeed="max"/>
    <trip id="387" depart="1741.50" from="E17" to="-E26"/>
    <trip id="388" depart="1746.00" from="E26" to="E25" departSpeed="max"/>
    <trip id="389" depart="1750.50" from="E16" to="-E26"/>
    <trip id="390" depart="1755.00" from="E22" to="E19"/>
    <trip id="391" depart="1759.50" from="E20" to="E20"/>
    <trip id="392" depart="1764.00" from="-E27" to="E24" departSpeed="max"/>
    <trip id="393" depart="1768.50" from="E26" to="E16" departSpeed="max"/>
    <trip id="394" depart="1773.00" from="E17" to="E18"/>
    <trip id="395" depart="1777.50" from="E23" to="E20"/>
    <trip id="396" depart="1782.00" from="E23" to="E25"/>
    <trip id="397" depart="1786.50" from="-E27" to="E24" departSpeed="max"/>
    <trip id="398" depart="1791.00" from="E15" to="E27"/>
    <trip id="399" depart="1795.50" from="E17" to="E24"/>
    <trip id="400" depart="1800.00" from="-E27" to="E17" departSpeed="max"/>
    <trip id="401" depart="1804.50" from="E18" to="E27"/>
    <trip id="402" depart="1809.00" from="E16" to="E15"/>
    <trip id="403" depart="1813.50" from="E17" to="E17"/>
    <trip id="404" depart="1818.00" from="E17" to="E20"/>
    <trip id="405" depart="1822.50" from="E16" to="E17"/>
    <trip id="406" depart="1827.00" from="-E25" to="E22" departSpeed="max"/>
    <trip id="407" depart="1831.50" from="E18" to="E16"/>
    <trip id="408" depart="1836.00" from="E20" to="-E20"/>
    <trip id="409" depart="1840.50" from="E20" to="E22"/>
    <trip id="410" depart="1845.00" from="E22" to="E18"/>
    <trip id="411" depart="1849.50" from="E19" to="E24"/>
    <trip id="412" depart="1854.00" from="E26" to="E19" departSpeed="max"/>
    <trip id="413" depart="1858.50" from="-E20" to="E20"/>
    <trip id="414" depart="1863.00" from="E18" to="E25"/>
    <trip id="415" depart="1867.50" from="E23" to="E19"/>
    <trip id="416" depart="1872.00" from="E17" to="E19"/>
    <trip id="417" depart="1876.50" from="E20" to="E18"/>
    <trip id="418" depart="1881.00" from="E19" to="E15"/>
    <trip id="419" depart="1885.50" from="E16" to="E27"/>
    <trip id="420" depart="1890.00" from="E14" to="E22" departSpeed="max"/>
    <trip id="421" depart="1894.50" from="E19" to="E24"/>
    <trip id="422" depart="1899.00" from="E22" to="E25"/>
    <trip id="423" depart="1903.50" from="E15" to="E17"/>
    <trip id="424" depart="1908.00" from="E20" to="E23"/>
    <trip id="425" depart="1912.50" from="E23" to="-E20"/>
    <trip id="426" depart="1917.00" from="-E20" to="E21"/>
    <trip id="427" depart="1921.50" from="E23" to="E27"/>
    <trip id="428" depart="1926.00" from="E20" to="E19"/>
    <trip id="429" depart="1930.50" from="-E21" to="E21" departSpeed="max"/>
    <trip id="430" depart="1935.00" from="E23" to="E19"/>
    <trip id="431" depart="1939.50" from="E19" to="E25"/>
    <trip id="432" depart="1944.00" from="-E20" to="E24"/>
    <trip id="433" depart="1948.50" from="E14" to="E18" departSpeed="max"/>
    <trip id="434" depart="1953.00" from="-E25" to="E20" departSpeed="max"/>
    <trip id="435" depart="1957.50" from="E17" to="E24"/>
    <trip id="436" depart="1962.00" from="-E25" to="-E26" departSpeed="max"/>
    <trip id="437" depart="1966.50" from="E23" to="E21"/>
    <trip id="438" depart="1971.00" from="-E27" to="E25" departSpeed="max"/>
    <trip id="439" depart="1975.50" from="-E25" to="E19" departSpeed="max"/>
    <trip id="440" depart="1980.00" from="-E27" to="E16" departSpeed="max"/>
    <trip id="441" depart="1984.50" from="-E20" to="E24"/>
    <trip id="442" depart="1989.00" from="E23" to="E22"/>
    <trip id="443" depart="1993.50" from="-E25" to="E19" departSpeed="max"/>
    <trip id="444" depart="1998.00" from="E14" to="E21" departSpeed="max"/>
    <trip id="445" depart="2002.50" from="E18" to="E18"/>
    <trip id="446" depart="2007.00" from="-E27" to="E24" departSpeed="max"/>
    <trip id="447" depart="2011.50" from="-E25" to="E18" departSpeed="max"/>
    <trip id="448" depart="2016.00" from="E16" to="E16"/>
    <trip id="449" depart="2020.50" from="E18" to="E21"/>
    <trip id="450" depart="2025.00" from="E26" to="E17" departSpeed="max"/>
    <trip id="451" depart="2029.50" from="E26" to="E22" departSpeed="max"/>
    <trip id="452" depart="2034.00" from="-E27" to="E20" departSpeed="max"/>
    <trip id="453" depart="2038.50" from="E19" to="E23"/>
    <trip id="454" depart="2043.00" from="-E20" to="E21"/>
    <trip id="455" depart="2047.50" from="E16" to="E25"/>
    <trip id="456" depart="2052.00" from="E14" to="E24" departSpeed="max"/>