<?xml version="1.0" encoding="UTF-8"?>

<!-- generated on 2026-01-20 14:04:25 by Eclipse SUMO netconvert Version 1.18.0
<configuration xmlns:xsi="http://www.w3.org/2001/XMLSchema-instance" xsi:noNamespaceSchemaLocation="http://sumo.dlr.de/xsd/netconvertConfiguration.xsd">

    <input>
        <osm-files value="C:\Users\91948\OneDrive\Desktop\latest\backend\sumo\networks\bangalore_hebbal\map_filtered.osm"/>
    </input>

    <output>
        <output-file value="C:\Users\91948\OneDrive\Desktop\latest\backend\sumo\networks\bangalore_hebbal\bangalore_hebbal.net.xml"/>
        <output.street-names value="true"/>
    </output>

    <projection>
        <proj.utm value="true"/>
    </projection>

    <processing>
        <geometry.remove value="true"/>
        <roundabouts.guess value="true"/>
    </processing>

    <tls_building>
        <tls.guess value="true"/>
        <tls.guess.threshold value="1"/>
        <tls.join value="true"/>
        <tls.default-type value="actuated"/>
    </tls_building>

    <ramp_guessing>
        <ramps.guess value="true"/>
    </ramp_guessing>

    <edge_removal>
        <keep-edges.by-vclass value="passenger,bus,motorcycle,bicycle"/>
        <remove-edges.by-vclass value="rail_urban,rail,rail_electric,tram,pedestrian"/>
        <remove-edges.isolated value="true"/>
    </edge_removal>

    <junctions>
        <no-turnarounds value="true"/>
        <junctions.join value="true"/>
        <junctions.join-dist value="15"/>
        <junctions.corner-detail value="5"/>
    </junctions>

</configuration>
-->

<net version="1.16" junctionCornerDetail="5" limitTurnSpeed="5.50" xmlns:xsi="http://www.w3.org/2001/XMLSchema-instance" xsi:noNamespaceSchemaLocation="http://sumo.dlr.de/xsd/net_file.xsd">

    <location netOffset="-780851.97,-1442340.94" convBoundary="0.00,0.00,1022.95,571.29" origBoundary="77.589490,13.034047,77.598898,13.039213" projParameter="+proj=utm +zone=43 +ellps=WGS84 +datum=WGS84 +units=m +no_defs"/>

    <type id="highway.residential" priority="3" numLanes="1" speed="13.89" disallow="tram rail_urban rail rail_electric rail_fast ship" oneway="0"/>
    <type id="highway.service" priority="1" numLanes="1" speed="5.56" allow="pedestrian delivery bicycle" oneway="0"/>
    <type id="highway.tertiary" priority="10" numLanes="1" speed="22.22" disallow="tram rail_urban rail rail_electric rail_fast ship" oneway="0"/>

    <edge id=":10091492663_0" function="internal">
        <lane id=":10091492663_0_0" index="0" allow="pedestrian delivery bicycle" speed="6.53" length="6.70" shape="931.21,274.03 929.56,272.54 928.04,271.64 926.65,271.31 925.39,271.56"/>
    </edge>
    <edge id=":10091492663_1" function="internal">
        <lane id=":10091492663_1_0" index="0" allow="pedestrian delivery bicycle" speed="7.59" length="10.13" shape="931.21,274.03 930.41,272.50 930.43,270.43 931.28,267.80 932.94,264.64"/>
    </edge>
    <edge id=":10091492663_2" function="internal">
        <lane id=":10091492663_2_0" index="0" allow="pedestrian delivery bicycle" speed="4.75" length="5.46" shape="934.31,267.55 932.98,268.39 932.40,269.38 932.58,270.52 933.51,271.81"/>
    </edge>
    <edge id=":10091492663_3" function="internal">
        <lane id=":10091492663_3_0" index="0" disallow="tram rail_urban rail rail_electric rail_fast ship" speed="22.22" length="9.77" shape="934.31,267.55 925.39,271.56"/>
    </edge>
    <edge id=":10091492663_4" function="internal">
        <lane id=":10091492663_4_0" index="0" disallow="tram rail_urban rail rail_electric rail_fast ship" speed="12.87" length="10.10" shape="924.08,268.64 926.98,267.76 929.23,267.45 931.12,266.74 932.94,264.64"/>
    </edge>
    <edge id=":10091492663_5" function="internal">
        <lane id=":10091492663_5_0" index="0" allow="pedestrian delivery bicycle" speed="8.06" length="2.75" shape="924.08,268.64 926.34,268.09 926.76,268.15"/>
    </edge>
    <edge id=":10091492663_6" function="internal">
        <lane id=":10091492663_6_0" index="0" allow="pedestrian delivery bicycle" speed="8.06" length="7.87" shape="926.76,268.15 928.66,268.43 931.05,269.67 933.51,271.81"/>
    </edge>
    <edge id=":10091492669_0" function="internal">
        <lane id=":10091492669_0_0" index="0" disallow="tram rail_urban rail rail_electric rail_fast ship" speed="7.97" length="8.88" shape="800.92,389.97 799.21,390.20 796.38,390.64 793.67,391.23 792.32,391.90"/>
    </edge>
    <edge id=":10091492669_1" function="internal">
        <lane id=":10091492669_1_0" index="0" disallow="tram rail_urban rail rail_electric rail_fast ship" speed="7.42" length="16.53" shape="800.92,389.97 796.00,389.93 793.08,388.29 792.17,385.08 793.27,380.28"/>
    </edge>
    <edge id=":10091492669_2" function="internal">
        <lane id=":10091492669_2_0" index="0" disallow="tram rail_urban rail rail_electric rail_fast ship" speed="5.71" length="9.20" shape="796.27,381.40 795.66,384.07 796.16,385.86 797.78,386.77 800.53,386.80"/>
    </edge>
    <edge id=":10091492669_3" function="internal">
        <lane id=":10091492669_3_0" index="0" disallow="tram rail_urban rail rail_electric rail_fast ship" speed="22.22" length="11.22" shape="796.27,381.40 792.32,391.90"/>
    </edge>
    <edge id=":10091492669_4" function="internal">
        <lane id=":10091492669_4_0" index="0" disallow="tram rail_urban rail rail_electric rail_fast ship" speed="22.22" length="11.22" shape="789.32,390.78 793.27,380.28"/>
    </edge>
    <edge id=":10091492669_5" function="internal">
        <lane id=":10091492669_5_0" index="0" disallow="tram rail_urban rail rail_electric rail_fast ship" speed="9.26" length="1.84" shape="789.32,390.78 790.41,389.52 790.56,389.44"/>
    </edge>
    <edge id=":10091492669_6" function="internal">
        <lane id=":10091492669_6_0" index="0" disallow="tram rail_urban rail rail_electric rail_fast ship" speed="9.26" length="10.37" shape="790.56,389.44 792.63,388.43 796.01,387.53 800.53,386.80"/>
    </edge>
    <edge id=":10091492671_0" function="internal">
        <lane id=":10091492671_0_0" index="0" disallow="tram rail_urban rail rail_electric rail_fast ship" speed="6.08" length="9.06" shape="834.53,347.49 833.84,345.02 832.54,343.55 830.63,343.08 828.12,343.61"/>
    </edge>
    <edge id=":10091492671_1" function="internal">
        <lane id=":10091492671_1_0" index="0" disallow="tram rail_urban rail rail_electric rail_fast ship" speed="8.85" length="14.63" shape="834.53,347.49 834.47,343.30 835.47,339.92 837.54,337.35 840.69,335.59"/>
    </edge>
    <edge id=":10091492671_2" function="internal">
        <lane id=":10091492671_2_0" index="0" disallow="tram rail_urban rail rail_electric rail_fast ship" speed="7.50" length="10.26" shape="841.79,338.60 839.68,339.81 838.29,341.63 837.63,344.05 837.71,347.08"/>
    </edge>
    <edge id=":10091492671_3" function="internal">
        <lane id=":10091492671_3_0" index="0" disallow="tram rail_urban rail rail_electric rail_fast ship" speed="22.22" length="14.56" shape="841.79,338.60 828.12,343.61"/>
    </edge>
    <edge id=":10091492671_4" function="internal">
        <lane id=":10091492671_4_0" index="0" disallow="tram rail_urban rail rail_electric rail_fast ship" speed="22.22" length="14.56" shape="827.02,340.61 840.69,335.59"/>
    </edge>
    <edge id=":10091492671_5" function="internal">
        <lane id=":10091492671_5_0" index="0" disallow="tram rail_urban rail rail_electric rail_fast ship" speed="7.66" length="4.28" shape="827.02,340.61 831.21,339.72"/>
    </edge>
    <edge id=":10091492671_6" function="internal">
        <lane id=":10091492671_6_0" index="0" disallow="tram rail_urban rail rail_electric rail_fast ship" speed="7.66" length="10.83" shape="831.21,339.72 834.38,340.50 836.55,342.95 837.71,347.08"/>
    </edge>
    <edge id=":10091492675_0" function="internal">
        <lane id=":10091492675_0_0" index="0" disallow="tram rail_urban rail rail_electric rail_fast ship" speed="6.81" length="9.43" shape="674.65,237.83 673.74,235.33 672.32,233.65 670.38,232.81 667.92,232.79"/>
    </edge>
    <edge id=":10091492675_1" function="internal">
        <lane id=":10091492675_1_0" index="0" disallow="tram rail_urban rail rail_electric rail_fast ship" speed="7.87" length="14.50" shape="674.65,237.83 674.34,233.82 675.42,230.78 677.89,228.69 681.74,227.56"/>
    </edge>
    <edge id=":10091492675_2" function="internal">
        <lane id=":10091492675_2_0" index="0" disallow="tram rail_urban rail rail_electric rail_fast ship" speed="6.34" length="9.04" shape="682.19,230.72 679.79,231.43 678.25,232.73 677.58,234.63 677.78,237.13"/>
    </edge>
    <edge id=":10091492675_3" function="internal">
        <lane id=":10091492675_3_0" index="0" disallow="tram rail_urban rail rail_electric rail_fast ship" speed="22.22" length="14.42" shape="682.19,230.72 667.92,232.79"/>
    </edge>
    <edge id=":10091492675_4" function="internal">
        <lane id=":10091492675_4_0" index="0" disallow="tram rail_urban rail rail_electric rail_fast ship" speed="22.22" length="14.43" shape="667.46,229.63 681.74,227.56"/>
    </edge>
    <edge id=":10091492675_5" function="internal">
        <lane id=":10091492675_5_0" index="0" disallow="tram rail_urban rail rail_electric rail_fast ship" speed="8.26" length="3.96" shape="667.46,229.63 671.24,229.64 671.40,229.71"/>
    </edge>
    <edge id=":10091492675_6" function="internal">
        <lane id=":10091492675_6_0" index="0" disallow="tram rail_urban rail rail_electric rail_fast ship" speed="8.26" length="10.36" shape="671.40,229.71 674.22,230.89 676.40,233.39 677.78,237.13"/>
    </edge>
    <edge id=":10091492677_0" function="internal">
        <lane id=":10091492677_0_0" index="0" disallow="tram rail_urban rail rail_electric rail_fast ship" speed="6.22" length="9.05" shape="689.01,306.56 688.51,304.08 687.33,302.48 685.48,301.74 682.95,301.88"/>
    </edge>
    <edge id=":10091492677_1" function="internal">
        <lane id=":10091492677_1_0" index="0" disallow="tram rail_urban rail rail_electric rail_fast ship" speed="13.89" length="14.67" shape="689.01,306.56 688.73,302.88 688.31,299.26 687.72,295.67 686.96,292.05"/>
    </edge>
    <edge id=":10091492677_2" function="internal">
        <lane id=":10091492677_2_0" index="0" disallow="tram rail_urban rail rail_electric rail_fast ship" speed="8.52" length="4.08" shape="689.01,306.56 689.31,302.49"/>
    </edge>
    <edge id=":10091492677_12" function="internal">
        <lane id=":10091492677_12_0" index="0" disallow="tram rail_urban rail rail_electric rail_fast ship" speed="8.52" length="10.57" shape="689.31,302.49 690.71,299.36 693.21,297.18 696.82,295.93"/>
    </edge>
    <edge id=":10091492677_3" function="internal">
        <lane id=":10091492677_3_0" index="0" disallow="tram rail_urban rail rail_electric rail_fast ship" speed="7.12" length="9.96" shape="697.41,299.08 695.00,299.92 693.33,301.42 692.40,303.57 692.21,306.38"/>
    </edge>
    <edge id=":10091492677_4" function="internal">
        <lane id=":10091492677_4_0" index="0" disallow="tram rail_urban rail rail_electric rail_fast ship" speed="13.89" length="14.73" shape="697.41,299.08 682.95,301.88"/>
    </edge>
    <edge id=":10091492677_5" function="internal">
        <lane id=":10091492677_5_0" index="0" disallow="tram rail_urban rail rail_electric rail_fast ship" speed="8.14" length="3.94" shape="697.41,299.08 693.59,299.23 693.48,299.19"/>
    </edge>
    <edge id=":10091492677_13" function="internal">
        <lane id=":10091492677_13_0" index="0" disallow="tram rail_urban rail rail_electric rail_fast ship" speed="8.14" length="10.27" shape="693.48,299.19 690.57,298.11 688.37,295.71 686.96,292.05"/>
    </edge>
    <edge id=":10091492677_6" function="internal">
        <lane id=":10091492677_6_0" index="0" disallow="tram rail_urban rail rail_electric rail_fast ship" speed="6.67" length="9.22" shape="690.08,291.33 690.99,293.72 692.42,295.29 694.36,296.02 696.82,295.93"/>
    </edge>
    <edge id=":10091492677_7" function="internal">
        <lane id=":10091492677_7_0" index="0" disallow="tram rail_urban rail rail_electric rail_fast ship" speed="13.89" length="15.22" shape="690.08,291.33 690.85,295.03 691.46,298.81 691.91,302.61 692.21,306.38"/>
    </edge>
    <edge id=":10091492677_8" function="internal">
        <lane id=":10091492677_8_0" index="0" disallow="tram rail_urban rail rail_electric rail_fast ship" speed="8.03" length="4.21" shape="690.08,291.33 690.39,295.25 690.30,295.51"/>
    </edge>
    <edge id=":10091492677_14" function="internal">
        <lane id=":10091492677_14_0" index="0" disallow="tram rail_urban rail rail_electric rail_fast ship" speed="8.03" length="10.41" shape="690.30,295.51 689.31,298.32 686.83,300.53 682.95,301.88"/>
    </edge>
    <edge id=":10091492677_9" function="internal">
        <lane id=":10091492677_9_0" index="0" disallow="tram rail_urban rail rail_electric rail_fast ship" speed="6.55" length="9.35" shape="682.32,298.75 684.83,297.88 686.44,296.48 687.15,294.53 686.96,292.05"/>
    </edge>
    <edge id=":10091492677_10" function="internal">
        <lane id=":10091492677_10_0" index="0" disallow="tram rail_urban rail rail_electric rail_fast ship" speed="13.89" length="14.78" shape="682.32,298.75 696.82,295.93"/>
    </edge>
    <edge id=":10091492677_11" function="internal">
        <lane id=":10091492677_11_0" index="0" disallow="tram rail_urban rail rail_electric rail_fast ship" speed="7.77" length="4.26" shape="682.32,298.75 686.44,298.52 686.56,298.56"/>
    </edge>
    <edge id=":10091492677_15" function="internal">
        <lane id=":10091492677_15_0" index="0" disallow="tram rail_urban rail rail_electric rail_fast ship" speed="7.77" length="10.50" shape="686.56,298.56 689.46,299.71 691.39,302.34 692.21,306.38"/>
    </edge>
    <edge id=":10091492683_0" function="internal">
        <lane id=":10091492683_0_0" index="0" disallow="tram rail_urban rail rail_electric rail_fast ship" speed="22.22" length="14.44" shape="744.68,220.48 730.44,222.90"/>
    </edge>
    <edge id=":10091492683_1" function="internal">
        <lane id=":10091492683_1_0" index="0" disallow="tram rail_urban rail rail_electric rail_fast ship" speed="8.66" length="3.43" shape="744.68,220.48 741.25,220.32"/>
    </edge>
    <edge id=":10091492683_6" function="internal">
        <lane id=":10091492683_6_0" index="0" disallow="tram rail_urban rail rail_electric rail_fast ship" speed="8.66" length="10.80" shape="741.25,220.32 740.88,220.31 737.83,219.03 735.52,216.66 733.95,213.19"/>
    </edge>
    <edge id=":10091492683_2" function="internal">
        <lane id=":10091492683_2_0" index="0" disallow="tram rail_urban rail rail_electric rail_fast ship" speed="7.20" length="9.56" shape="737.02,212.28 738.08,214.67 739.62,216.30 741.63,217.19 744.13,217.32"/>
    </edge>
    <edge id=":10091492683_3" function="internal">
        <lane id=":10091492683_3_0" index="0" disallow="tram rail_urban rail rail_electric rail_fast ship" speed="7.81" length="14.66" shape="737.02,212.28 737.61,216.32 736.71,219.44 734.32,221.63 730.44,222.90"/>
    </edge>
    <edge id=":10091492683_4" function="internal">
        <lane id=":10091492683_4_0" index="0" disallow="tram rail_urban rail rail_electric rail_fast ship" speed="6.27" length="9.04" shape="729.89,219.74 732.29,218.96 733.76,217.61 734.32,215.69 733.95,213.19"/>
    </edge>
    <edge id=":10091492683_5" function="internal">
        <lane id=":10091492683_5_0" index="0" disallow="tram rail_urban rail rail_electric rail_fast ship" speed="22.22" length="14.44" shape="729.89,219.74 744.13,217.32"/>
    </edge>
    <edge id=":10091492686_0" function="internal">
        <lane id=":10091492686_0_0" index="0" disallow="tram rail_urban rail rail_electric rail_fast ship" speed="10.37" length="9.86" shape="950.57,237.18 947.48,239.17 945.21,240.88 943.75,242.30 943.10,243.43"/>
    </edge>
    <edge id=":10091492686_1" function="internal">
        <lane id=":10091492686_1_0" index="0" allow="pedestrian delivery bicycle" speed="6.65" length="4.11" shape="950.57,237.18 946.97,238.77 946.80,238.75"/>
    </edge>
    <edge id=":10091492686_6" function="internal">
        <lane id=":10091492686_6_0" index="0" allow="pedestrian delivery bicycle" speed="6.65" length="8.98" shape="946.80,238.75 944.33,238.56 942.65,236.54 941.92,232.73"/>
    </edge>
    <edge id=":10091492686_2" function="internal">
        <lane id=":10091492686_2_0" index="0" allow="pedestrian delivery bicycle" speed="4.68" length="5.74" shape="945.12,232.49 945.43,234.16 946.17,235.05 947.33,235.14 948.90,234.45"/>
    </edge>
    <edge id=":10091492686_3" function="internal">
        <lane id=":10091492686_3_0" index="0" allow="pedestrian delivery bicycle" speed="13.89" length="11.19" shape="945.12,232.49 945.08,235.62 944.64,238.01 943.95,240.37 943.10,243.43"/>
    </edge>
    <edge id=":10091492686_4" function="internal">
        <lane id=":10091492686_4_0" index="0" allow="pedestrian delivery bicycle" speed="13.89" length="7.54" shape="940.61,240.10 941.21,237.94 941.67,236.45 941.92,234.95 941.92,232.73"/>
    </edge>
    <edge id=":10091492686_5" function="internal">
        <lane id=":10091492686_5_0" index="0" disallow="tram rail_urban rail rail_electric rail_fast ship" speed="10.48" length="10.07" shape="940.61,240.10 941.88,238.88 944.52,237.11 947.28,235.41 948.90,234.45"/>
    </edge>
    <edge id=":10091492695_0" function="internal">
        <lane id=":10091492695_0_0" index="0" disallow="tram rail_urban rail rail_electric rail_fast ship" speed="6.52" length="9.04" shape="910.62,132.41 910.27,129.96 909.22,128.20 907.47,127.15 905.01,126.79"/>
    </edge>
    <edge id=":10091492695_1" function="internal">
        <lane id=":10091492695_1_0" index="0" disallow="tram rail_urban rail rail_electric rail_fast ship" speed="13.89" length="14.40" shape="910.62,132.41 910.64,118.01"/>
    </edge>
    <edge id=":10091492695_2" function="internal">
        <lane id=":10091492695_2_0" index="0" disallow="tram rail_urban rail rail_electric rail_fast ship" speed="13.89" length="14.40" shape="913.84,118.01 913.82,132.41"/>
    </edge>
    <edge id=":10091492695_3" function="internal">
        <lane id=":10091492695_3_0" index="0" disallow="tram rail_urban rail rail_electric rail_fast ship" speed="8.00" length="4.07" shape="913.84,118.01 913.28,121.87 913.19,122.02"/>
    </edge>
    <edge id=":10091492695_6" function="internal">
        <lane id=":10091492695_6_0" index="0" disallow="tram rail_urban rail rail_electric rail_fast ship" speed="8.00" length="10.13" shape="913.19,122.02 911.63,124.61 908.87,126.25 905.01,126.79"/>
    </edge>
    <edge id=":10091492695_4" function="internal">
        <lane id=":10091492695_4_0" index="0" disallow="tram rail_urban rail rail_electric rail_fast ship" speed="6.50" length="9.03" shape="905.03,123.59 907.48,123.25 909.23,122.20 910.29,120.46 910.64,118.01"/>
    </edge>
    <edge id=":10091492695_5" function="internal">
        <lane id=":10091492695_5_0" index="0" disallow="tram rail_urban rail rail_electric rail_fast ship" speed="8.01" length="14.19" shape="905.03,123.59 908.88,124.15 911.63,125.81 913.27,128.56 913.82,132.41"/>
    </edge>
    <edge id=":10091492697_0" function="internal">
        <lane id=":10091492697_0_0" index="0" disallow="tram rail_urban rail rail_electric rail_fast ship" speed="6.52" length="9.05" shape="910.70,83.65 910.35,81.20 909.30,79.45 907.55,78.39 905.09,78.02"/>
    </edge>
    <edge id=":10091492697_1" function="internal">
        <lane id=":10091492697_1_0" index="0" disallow="tram rail_urban rail rail_electric rail_fast ship" speed="13.89" length="14.40" shape="910.70,83.65 910.72,69.25"/>
    </edge>
    <edge id=":10091492697_2" function="internal">
        <lane id=":10091492697_2_0" index="0" disallow="tram rail_urban rail rail_electric rail_fast ship" speed="13.89" length="14.40" shape="913.92,69.25 913.90,83.65"/>
    </edge>
    <edge id=":10091492697_3" function="internal">
        <lane id=":10091492697_3_0" index="0" disallow="tram rail_urban rail rail_electric rail_fast ship" speed="7.99" length="4.07" shape="913.92,69.25 913.37,73.11 913.28,73.26"/>
    </edge>
    <edge id=":10091492697_6" function="internal">
        <lane id=":10091492697_6_0" index="0" disallow="tram rail_urban rail rail_electric rail_fast ship" speed="7.99" length="10.14" shape="913.28,73.26 911.71,75.86 908.95,77.49 905.09,78.02"/>
    </edge>
    <edge id=":10091492697_4" function="internal">
        <lane id=":10091492697_4_0" index="0" disallow="tram rail_urban rail rail_electric rail_fast ship" speed="6.50" length="9.03" shape="905.11,74.82 907.56,74.49 909.32,73.45 910.37,71.70 910.72,69.25"/>
    </edge>
    <edge id=":10091492697_5" function="internal">
        <lane id=":10091492697_5_0" index="0" disallow="tram rail_urban rail rail_electric rail_fast ship" speed="8.02" length="14.20" shape="905.11,74.82 908.96,75.39 911.71,77.06 913.36,79.81 913.90,83.65"/>
    </edge>
    <edge id=":11363940890_0" function="internal">
        <lane id=":11363940890_0_0" index="0" disallow="tram rail_urban rail rail_electric rail_fast ship" speed="13.89" length="14.41" shape="913.88,96.83 913.85,111.24"/>
    </edge>
    <edge id=":11363940890_1" function="internal">
        <lane id=":11363940890_1_0" index="0" disallow="tram rail_urban rail rail_electric rail_fast ship" speed="7.97" length="4.08" shape="913.88,96.83 913.32,100.71 913.23,100.85"/>
    </edge>
    <edge id=":11363940890_6" function="internal">
        <lane id=":11363940890_6_0" index="0" disallow="tram rail_urban rail rail_electric rail_fast ship" speed="7.97" length="10.18" shape="913.23,100.85 911.65,103.46 908.87,105.07 904.98,105.55"/>
    </edge>
    <edge id=":11363940890_2" function="internal">
        <lane id=":11363940890_2_0" index="0" disallow="tram rail_urban rail rail_electric rail_fast ship" speed="6.47" length="9.03" shape="905.04,102.35 907.50,102.05 909.26,101.03 910.32,99.29 910.68,96.83"/>
    </edge>
    <edge id=":11363940890_3" function="internal">
        <lane id=":11363940890_3_0" index="0" disallow="tram rail_urban rail rail_electric rail_fast ship" speed="8.06" length="14.22" shape="905.04,102.35 908.90,102.97 911.66,104.66 913.31,107.42 913.85,111.24"/>
    </edge>
    <edge id=":11363940890_4" function="internal">
        <lane id=":11363940890_4_0" index="0" disallow="tram rail_urban rail rail_electric rail_fast ship" speed="6.58" length="9.13" shape="910.65,111.24 910.30,108.79 909.24,107.03 907.47,105.95 904.98,105.55"/>
    </edge>
    <edge id=":11363940890_5" function="internal">
        <lane id=":11363940890_5_0" index="0" disallow="tram rail_urban rail rail_electric rail_fast ship" speed="13.89" length="14.40" shape="910.65,111.24 910.68,96.83"/>
    </edge>
    <edge id=":2460383160_0" function="internal">
        <lane id=":2460383160_0_0" index="0" disallow="tram rail_urban rail rail_electric rail_fast ship" speed="8.97" length="11.35" shape="805.54,150.03 804.55,147.82 802.79,145.98 800.27,144.51 796.98,143.42"/>
    </edge>
    <edge id=":2460383160_1" function="internal">
        <lane id=":2460383160_1_0" index="0" disallow="tram rail_urban rail rail_electric rail_fast ship" speed="13.89" length="14.66" shape="805.54,150.03 804.72,146.43 804.09,142.85 803.60,139.25 803.20,135.57"/>
    </edge>
    <edge id=":2460383160_2" function="internal">
        <lane id=":2460383160_2_0" index="0" disallow="tram rail_urban rail rail_electric rail_fast ship" speed="13.89" length="14.18" shape="806.39,135.26 806.77,138.86 807.24,142.30 807.84,145.72 808.64,149.25"/>
    </edge>
    <edge id=":2460383160_3" function="internal">
        <lane id=":2460383160_3_0" index="0" disallow="tram rail_urban rail rail_electric rail_fast ship" speed="7.53" length="4.40" shape="806.39,135.26 806.20,139.66"/>
    </edge>
    <edge id=":2460383160_6" function="internal">
        <lane id=":2460383160_6_0" index="0" disallow="tram rail_urban rail rail_electric rail_fast ship" speed="7.53" length="11.28" shape="806.20,139.66 806.20,139.79 804.57,142.67 801.49,143.88 796.98,143.42"/>
    </edge>
    <edge id=":2460383160_4" function="internal">
        <lane id=":2460383160_4_0" index="0" disallow="tram rail_urban rail rail_electric rail_fast ship" speed="5.90" length="9.11" shape="797.74,140.31 800.36,140.58 802.15,139.88 803.09,138.21 803.20,135.57"/>
    </edge>
    <edge id=":2460383160_5" function="internal">
        <lane id=":2460383160_5_0" index="0" disallow="tram rail_urban rail rail_electric rail_fast ship" speed="10.18" length="14.82" shape="797.74,140.31 801.87,141.72 805.07,143.68 807.32,146.19 808.64,149.25"/>
    </edge>
    <edge id=":2460383180_0" function="internal">
        <lane id=":2460383180_0_0" index="0" disallow="tram rail_urban rail rail_electric rail_fast ship" speed="8.47" length="12.09" shape="823.73,206.56 821.20,204.04 818.60,202.55 815.92,202.09 813.17,202.65"/>
    </edge>
    <edge id=":2460383180_1" function="internal">
        <lane id=":2460383180_1_0" index="0" disallow="tram rail_urban rail rail_electric rail_fast ship" speed="18.05" length="16.48" shape="823.73,206.56 821.38,203.34 819.21,199.67 817.41,195.81 816.16,192.04"/>
    </edge>
    <edge id=":2460383180_2" function="internal">
        <lane id=":2460383180_2_0" index="0" disallow="tram rail_urban rail rail_electric rail_fast ship" speed="7.54" length="15.66" shape="823.73,206.56 821.37,202.70 821.12,199.40 822.99,196.68 826.98,194.53"/>
    </edge>
    <edge id=":2460383180_3" function="internal">
        <lane id=":2460383180_3_0" index="0" disallow="tram rail_urban rail rail_electric rail_fast ship" speed="5.91" length="9.10" shape="828.09,197.53 825.77,198.78 824.69,200.36 824.83,202.28 826.20,204.52"/>
    </edge>
    <edge id=":2460383180_4" function="internal">
        <lane id=":2460383180_4_0" index="0" disallow="tram rail_urban rail rail_electric rail_fast ship" speed="22.22" length="15.77" shape="828.09,197.53 813.17,202.65"/>
    </edge>
    <edge id=":2460383180_5" function="internal">
        <lane id=":2460383180_5_0" index="0" disallow="tram rail_urban rail rail_electric rail_fast ship" speed="8.00" length="4.82" shape="828.09,197.53 823.73,198.53 823.38,198.47"/>
    </edge>
    <edge id=":2460383180_12" function="internal">
        <lane id=":2460383180_12_0" index="0" disallow="tram rail_urban rail rail_electric rail_fast ship" speed="8.00" length="10.53" shape="823.38,198.47 820.28,197.94 817.76,195.78 816.16,192.04"/>
    </edge>
    <edge id=":2460383180_6" function="internal">
        <lane id=":2460383180_6_0" index="0" disallow="tram rail_urban rail rail_electric rail_fast ship" speed="6.51" length="9.79" shape="819.26,191.26 820.27,193.56 821.90,194.88 824.13,195.20 826.98,194.53"/>
    </edge>
    <edge id=":2460383180_7" function="internal">
        <lane id=":2460383180_7_0" index="0" disallow="tram rail_urban rail rail_electric rail_fast ship" speed="18.05" length="15.09" shape="819.26,191.26 820.41,194.83 822.00,198.26 823.95,201.50 826.20,204.52"/>
    </edge>
    <edge id=":2460383180_8" function="internal">
        <lane id=":2460383180_8_0" index="0" disallow="tram rail_urban rail rail_electric rail_fast ship" speed="8.42" length="14.37" shape="819.26,191.26 819.66,195.06 818.78,198.23 816.62,200.76 813.17,202.65"/>
    </edge>
    <edge id=":2460383180_9" function="internal">
        <lane id=":2460383180_9_0" index="0" disallow="tram rail_urban rail rail_electric rail_fast ship" speed="6.91" length="9.37" shape="812.33,199.55 814.52,198.32 815.89,196.66 816.44,194.57 816.16,192.04"/>
    </edge>
    <edge id=":2460383180_10" function="internal">
        <lane id=":2460383180_10_0" index="0" disallow="tram rail_urban rail rail_electric rail_fast ship" speed="22.22" length="15.48" shape="812.33,199.55 826.98,194.53"/>
    </edge>
    <edge id=":2460383180_11" function="internal">
        <lane id=":2460383180_11_0" index="0" disallow="tram rail_urban rail rail_electric rail_fast ship" speed="9.49" length="4.14" shape="812.33,199.55 815.62,199.19 816.42,199.37"/>
    </edge>
    <edge id=":2460383180_13" function="internal">
        <lane id=":2460383180_13_0" index="0" disallow="tram rail_urban rail rail_electric rail_fast ship" speed="9.49" length="11.26" shape="816.42,199.37 819.48,200.08 823.24,201.94 826.20,204.52"/>
    </edge>
    <edge id=":2460535483_0" function="internal">
        <lane id=":2460535483_0_0" index="0" disallow="tram rail_urban rail rail_electric rail_fast ship" speed="12.37" length="11.41" shape="867.92,328.90 864.70,328.60 862.16,328.64 859.77,329.28 857.00,330.81"/>
    </edge>
    <edge id=":2460535483_1" function="internal">
        <lane id=":2460535483_1_0" index="0" disallow="tram rail_urban rail rail_electric rail_fast ship" speed="7.82" length="14.62" shape="867.92,328.90 863.97,327.92 861.43,325.91 860.29,322.88 860.55,318.82"/>
    </edge>
    <edge id=":2460535483_2" function="internal">
        <lane id=":2460535483_2_0" index="0" disallow="tram rail_urban rail rail_electric rail_fast ship" speed="6.29" length="9.04" shape="863.68,319.48 863.52,321.99 864.22,323.87 865.80,325.11 868.24,325.72"/>
    </edge>
    <edge id=":2460535483_3" function="internal">
        <lane id=":2460535483_3_0" index="0" disallow="tram rail_urban rail rail_electric rail_fast ship" speed="12.17" length="4.46" shape="863.68,319.48 862.79,322.93 862.44,323.76"/>
    </edge>
    <edge id=":2460535483_6" function="internal">
        <lane id=":2460535483_6_0" index="0" disallow="tram rail_urban rail rail_electric rail_fast ship" speed="12.17" length="9.07" shape="862.44,323.76 861.52,325.95 859.66,328.57 857.00,330.81"/>
    </edge>
    <edge id=":2460535483_4" function="internal">
        <lane id=":2460535483_4_0" index="0" disallow="tram rail_urban rail rail_electric rail_fast ship" speed="11.09" length="11.16" shape="855.24,328.14 857.68,326.21 859.07,324.28 859.87,321.95 860.55,318.82"/>
    </edge>