<?xml version="1.0" encoding="UTF-8"?>

<!-- generated on 2026-01-21 03:06:09.745135 by randomTrips.py v1_18_0+0000-03ecfdea036
<configuration>
    <net-file value="C:\Users\91948\OneDrive\Desktop\latest\backend\sumo\networks\bangalore_hosmat\hosmat.net.xml"/>
    <route-file value="C:\Users\91948\OneDrive\Desktop\latest\backend\sumo\networks\bangalore_hosmat\episode_routes_rl.rou.xml"/>
    <fringe-start-attributes value="departSpeed=&quot;max&quot;"/>
    <end value="5400.0"/>
    <period value="8.0"/>
</configuration>
-->

<!-- generated on 2026-01-21 03:06:09 by Eclipse SUMO duarouter Version 1.18.0
<configuration xmlns:xsi="http://www.w3.org/2001/XMLSchema-instance" xsi:noNamespaceSchemaLocation="http://sumo.dlr.de/xsd/duarouterConfiguration.xsd">

    <input>
        <net-file value="C:\Users\91948\OneDrive\Desktop\latest\backend\sumo\networks\bangalore_hosmat\hosmat.net.xml"/>
        <route-files value="trips.trips.xml"/>
    </input>

    <output>
        <output-file value="C:\Users\91948\OneDrive\Desktop\latest\backend\sumo\networks\bangalore_hosmat\episode_routes_rl.rou.xml"/>
        <alternatives-output value="NUL"/>
    </output>

    <time>
        <begin value="0"/>
        <end value="5400.0"/>
    </time>

    <report>
        <no-warnings value="true"/>
        <ignore-errors value="true"/>
        <no-step-log value="true"/>
    </report>

</configuration>
-->

<routes xmlns:xsi="http://www.w3.org/2001/XMLSchema-instance" xsi:noNamespaceSchemaLocation="http://sumo.dlr.de/xsd/routes_file.xsd">
    <vehicle id="1" depart="8.00" departSpeed="max">
        <route edges="-E27 E23 E20 E15 E16"/>
    </vehicle>
    <vehicle id="2" depart="16.00">
        <route edges="E20 E15 E16 E17 E22"/>
    </vehicle>
    <vehicle id="3" depart="24.00">
        <route edges="E23 E20 E15 E16 E17 E22 -E26"/>
    </vehicle>
    <vehicle id="5" depart="40.00" departSpeed="max">
        <route edges="-E27 E23 E20"/>
    </vehicle>
    <vehicle id="7" depart="56.00">
        <route edges="E19 E20"/>
    </vehicle>
    <vehicle id="8" depart="64.00" departSpeed="max">
        <route edges="-E27 E23 E20 E21"/>
    </vehicle>
    <vehicle id="10" depart="80.00">
        <route edges="E22"/>
    </vehicle>
    <vehicle id="11" depart="88.00" departSpeed="max">
        <route edges="E14 E15"/>
    </vehicle>
    <vehicle id="12" depart="96.00" departSpeed="max">
        <route edges="E26 E23 E20 E15 E16 E17"/>
    </vehicle>
    <vehicle id="13" depart="104.00" departSpeed="max">
        <route edges="-E21 E15 E16 E17 E22 -E26"/>
    </vehicle>
    <vehicle id="14" depart="112.00">
        <route edges="E22 E23 E20 E21"/>
    </vehicle>
    <vehicle id="15" depart="120.00">
        <route edges="E22 E23"/>
    </vehicle>
    <vehicle id="16" depart="128.00">
        <route edges="E17 E22 E27"/>
    </vehicle>
    <vehicle id="17" depart="136.00">
        <route edges="E15 E16 E17 E18 E19 E20"/>
    </vehicle>
    <vehicle id="18" depart="144.00">
        <route edges="E22 E23 E20 E21"/>
    </vehicle>
    <vehicle id="19" depart="152.00">
        <route edges="E23 E20 E21"/>
    </vehicle>
    <vehicle id="21" depart="168.00" departSpeed="max">
        <route edges="-E27 E23 E20 E15 E16 E17"/>
    </vehicle>
    <vehicle id="22" depart="176.00" departSpeed="max">
        <route edges="-E21 E15 E16"/>
    </vehicle>
    <vehicle id="23" depart="184.00" departSpeed="max">
        <route edges="-E21 E15 E16"/>
    </vehicle>
    <vehicle id="24" depart="192.00">
        <route edges="E18"/>
    </vehicle>
    <vehicle id="25" depart="200.00">
        <route edges="E15"/>
    </vehicle>
    <vehicle id="26" depart="208.00" departSpeed="max">
        <route edges="-E27 E23 E20 E15 E16 E17 E22 E27"/>
    </vehicle>
    <vehicle id="27" depart="216.00">
        <route edges="E19 E20 E21"/>
    </vehicle>
    <vehicle id="28" depart="224.00" departSpeed="max">
        <route edges="-E25 E22 E23"/>
    </vehicle>
    <vehicle id="29" depart="232.00" departSpeed="max">
        <route edges="-E25 E18"/>
    </vehicle>
    <vehicle id="30" depart="240.00" departSpeed="max">
        <route edges="E26 E23 E20 E21"/>
    </vehicle>
    <vehicle id="31" depart="248.00">
        <route edges="E17 E22"/>
    </vehicle>
    <vehicle id="32" depart="256.00">
        <route edges="E22 E23"/>
    </vehicle>
    <vehicle id="34" depart="272.00" departSpeed="max">
        <route edges="E14 E15 E16"/>
    </vehicle>
    <vehicle id="35" depart="280.00" departSpeed="max">
        <route edges="-E25 E22 E27"/>
    </vehicle>
    <vehicle id="36" depart="288.00">
        <route edges="E23 E20 E15 E16 E17"/>
    </vehicle>
    <vehicle id="37" depart="296.00">
        <route edges="E19 E20 E15 E16 E17 E18"/>
    </vehicle>
    <vehicle id="38" depart="304.00">
        <route edges="E23 E20 E15 E16 E17 E18 E19"/>
    </vehicle>
    <vehicle id="39" depart="312.00" departSpeed="max">
        <route edges="-E27 E23 E20 E15 E16"/>
    </vehicle>
    <vehicle id="40" depart="320.00">
        <route edges="E17 E18 E19 E20 E15 E16"/>
    </vehicle>
    <vehicle id="41" depart="328.00">
        <route edges="E18 E19 E20 E15 E16 E17 E25"/>
    </vehicle>
    <vehicle id="42" depart="336.00">
        <route edges="E15 E16"/>
    </vehicle>
    <vehicle id="43" depart="344.00" departSpeed="max">
        <route edges="E26 E23 E20"/>
    </vehicle>
    <vehicle id="44" depart="352.00" departSpeed="max">
        <route edges="-E21 -E20"/>
    </vehicle>
    <vehicle id="45" depart="360.00" departSpeed="max">
        <route edges="-E21 E15 E16 E17 E18 E19 E20 E21"/>
    </vehicle>
    <vehicle id="46" depart="368.00">
        <route edges="E22 E23 E20 E15 E16 E17 E18"/>
    </vehicle>
    <vehicle id="48" depart="384.00" departSpeed="max">
        <route edges="E26 E23 E20"/>
    </vehicle>
    <vehicle id="49" depart="392.00" departSpeed="max">
        <route edges="E26 E23 E20 E15 E16 E17 E25"/>
    </vehicle>
    <vehicle id="51" depart="408.00">
        <route edges="E19 E20"/>
    </vehicle>
    <vehicle id="52" depart="416.00" departSpeed="max">
        <route edges="-E27 E23 E20 E21"/>
    </vehicle>
    <vehicle id="53" depart="424.00" departSpeed="max">
        <route edges="-E21 E15 E16 E17 E18 E19"/>
    </vehicle>
    <vehicle id="54" depart="432.00">
        <route edges="E16 E17 E22 E27"/>
    </vehicle>
    <vehicle id="55" depart="440.00">
        <route edges="E23 E20 E15 E16"/>
    </vehicle>
    <vehicle id="56" depart="448.00">
        <route edges="E17 E18 E19 E20 E15"/>
    </vehicle>
    <vehicle id="57" depart="456.00">
        <route edges="E23 E20 E15 E16 E17 E25"/>
    </vehicle>
    <vehicle id="58" depart="464.00" departSpeed="max">
        <route edges="E14 E21"/>
    </vehicle>
    <vehicle id="59" depart="472.00">
        <route edges="E18 E19 E20 E15"/>
    </vehicle>
    <vehicle id="60" depart="480.00">
        <route edges="E20"/>
    </vehicle>
    <vehicle id="61" depart="488.00">
        <route edges="E20"/>
    </vehicle>
    <vehicle id="64" depart="512.00">
        <route edges="E23 E24"/>
    </vehicle>
    <vehicle id="65" depart="520.00" departSpeed="max">
        <route edges="E14 -E20"/>
    </vehicle>
    <vehicle id="66" depart="528.00">
        <route edges="E23 E20 E15 E16 E17 E22 E27"/>
    </vehicle>
    <vehicle id="67" depart="536.00" departSpeed="max">
        <route edges="-E21 E15 E16 E17 E18 E19"/>
    </vehicle>
    <vehicle id="69" depart="552.00">
        <route edges="E20 E15 E16 E17 E22 -E26"/>
    </vehicle>
    <vehicle id="70" depart="560.00">
        <route edges="E16 E17 E18 E19 E20"/>
    </vehicle>
    <vehicle id="71" depart="568.00" departSpeed="max">
        <route edges="-E27 E23 E20 E15 E16 E17 E25"/>
    </vehicle>
    <vehicle id="72" depart="576.00">
        <route edges="E15"/>
    </vehicle>
    <vehicle id="73" depart="584.00">
        <route edges="E17 E22 E23"/>
    </vehicle>
    <vehicle id="74" depart="592.00" departSpeed="max">
        <route edges="-E25 E18 E19 E20 E15 E16 E17"/>
    </vehicle>
    <vehicle id="75" depart="600.00" departSpeed="max">
        <route edges="E26 E23 E20 E15 E16 E17 E22"/>
    </vehicle>
    <vehicle id="76" depart="608.00">
        <route edges="E16 E17 E18 E19 E20"/>
    </vehicle>
    <vehicle id="77" depart="616.00" departSpeed="max">
        <route edges="-E21 E15 E16"/>
    </vehicle>
    <vehicle id="78" depart="624.00" departSpeed="max">
        <route edges="E14 E21"/>
    </vehicle>
    <vehicle id="79" depart="632.00" departSpeed="max">
        <route edges="-E27 E23 E20 E15 E16"/>
    </vehicle>
    <vehicle id="81" depart="648.00" departSpeed="max">
        <route edges="-E27 E23 E20 E15 E16 E17 E25"/>
    </vehicle>
    <vehicle id="83" depart="664.00" departSpeed="max">
        <route edges="-E27 E23 E20 E15 E16 E17 E22"/>
    </vehicle>
    <vehicle id="84" depart="672.00" departSpeed="max">
        <route edges="-E25 E22 -E26"/>
    </vehicle>
    <vehicle id="85" depart="680.00" departSpeed="max">
        <route edges="E26 E23 E20"/>
    </vehicle>
    <vehicle id="86" depart="688.00">
        <route edges="E16 E17 E22 E23"/>
    </vehicle>
    <vehicle id="87" depart="696.00">
        <route edges="E22 E23 E20 E15"/>
    </vehicle>
    <vehicle id="88" depart="704.00" departSpeed="max">
        <route edges="-E21 E15 E16 E17 E18 E19"/>
    </vehicle>
    <vehicle id="89" depart="712.00">
        <route edges="E15 E16 E17 E18 E19"/>
    </vehicle>
    <vehicle id="90" depart="720.00">
        <route edges="E20 E15 E16 E17 E22"/>
    </vehicle>
    <vehicle id="91" depart="728.00" departSpeed="max">
        <route edges="E26 E23 E20 E15 E16 E17 E22 -E26"/>
    </vehicle>
    <vehicle id="92" depart="736.00">
        <route edges="E15 E16 E17"/>
    </vehicle>
    <vehicle id="93" depart="744.00">
        <route edges="E23 E20 E15 E16"/>
    </vehicle>
    <vehicle id="94" depart="752.00" departSpeed="max">
        <route edges="-E25 E18 E19"/>
    </vehicle>
    <vehicle id="95" depart="760.00">
        <route edges="E15 E16"/>
    </vehicle>
    <vehicle id="96" depart="768.00" departSpeed="max">
        <route edges="-E27 E23 E20 E15 E16 E17 E25"/>
    </vehicle>
    <vehicle id="97" depart="776.00">
        <route edges="E16 E17 E25"/>
    </vehicle>
    <vehicle id="99" depart="792.00" departSpeed="max">
        <route edges="E26 E23 E24"/>
    </vehicle>
    <vehicle id="100" depart="800.00" departSpeed="max">
        <route edges="E26 E23 E20 E15 E16 E17 E25"/>
    </vehicle>
    <vehicle id="101" depart="808.00">
        <route edges="E22 E23 E20 E15"/>
    </vehicle>
    <vehicle id="102" depart="816.00">
        <route edges="E16 E17 E18 E19 E20 E15"/>
    </vehicle>
    <vehicle id="104" depart="832.00">
        <route edges="E15 E16 E17 E22 E27"/>
    </vehicle>
    <vehicle id="105" depart="840.00" departSpeed="max">
        <route edges="-E27 E23"/>
    </vehicle>
    <vehicle id="106" depart="848.00">
        <route edges="E16 E17 E18"/>
    </vehicle>
    <vehicle id="107" depart="856.00" departSpeed="max">
        <route edges="E26 E27"/>
    </vehicle>
    <vehicle id="108" depart="864.00">
        <route edges="E17 E22 E23"/>
    </vehicle>
    <vehicle id="109" depart="872.00" departSpeed="max">
        <route edges="-E25 E18 E19 E20 E15 E16 E17"/>
    </vehicle>
    <vehicle id="110" depart="880.00" departSpeed="max">
        <route edges="E26 E23 E20 E21"/>
    </vehicle>
    <vehicle id="111" depart="888.00">
        <route edges="E17 E22 E23"/>
    </vehicle>
    <vehicle id="113" depart="904.00">
        <route edges="E17 E18 E19 E24"/>
    </vehicle>
    <vehicle id="114" depart="912.00" departSpeed="max">
        <route edges="-E25 E22 E27"/>
    </vehicle>
    <vehicle id="115" depart="920.00" departSpeed="max">
        <route edges="-E21 E15"/>
    </vehicle>
    <vehicle id="116" depart="928.00">
        <route edges="E18 E19 E20 E15 E16 E17 E22"/>
    </vehicle>
    <vehicle id="117" depart="936.00" departSpeed="max">
        <route edges="-E27 -E26"/>
    </vehicle>
    <vehicle id="118" depart="944.00">
        <route edges="E23 E20 E15 E16"/>
    </vehicle>
    <vehicle id="119" depart="952.00">
        <route edges="E18 E19 E20 E21"/>
    </vehicle>
    <vehicle id="120" depart="960.00">
        <route edges="E15 E16 E17 E18 E19 E20 E21"/>
    </vehicle>
    <vehicle id="121" depart="968.00">
        <route edges="E17 E22 E27"/>
    </vehicle>
    <vehicle id="122" depart="976.00" departSpeed="max">
        <route edges="-E25 E22 E23"/>
    </vehicle>
    <vehicle id="123" depart="984.00" departSpeed="max">
        <route edges="-E27 E23 E20 E15 E16 E17 E18"/>
    </vehicle>
    <vehicle id="124" depart="992.00">
        <route edges="E19 E20 E15 E16 E17"/>
    </vehicle>
    <vehicle id="125" depart="1000.00" departSpeed="max">
        <route edges="E14 E15 E16 E17 E22 E23"/>
    </vehicle>
    <vehicle id="126" depart="1008.00" departSpeed="max">
        <route edges="-E21 E15 E16 E17 E18 E19"/>
    </vehicle>
    <vehicle id="127" depart="1016.00" departSpeed="max">
        <route edges="E26 E27"/>
    </vehicle>
    <vehicle id="128" depart="1024.00" departSpeed="max">
        <route edges="-E21 E15"/>
    </vehicle>
    <vehicle id="129" depart="1032.00" departSpeed="max">
        <route edges="-E27 E23 E20 E15 E16 E17 E22 E27"/>
    </vehicle>
    <vehicle id="130" depart="1040.00">
        <route edges="E23 E20 E15 E16 E17 E25"/>
    </vehicle>
    <vehicle id="131" depart="1048.00">
        <route edges="E15"/>
    </vehicle>
    <vehicle id="132" depart="1056.00">
        <route edges="E22"/>
    </vehicle>
    <vehicle id="133" depart="1064.00">
        <route edges="E18 E19 E20 E15 E16 E17 E22 E27"/>
    </vehicle>
    <vehicle id="135" depart="1080.00">
        <route edges="E22 E23 E20 E15 E16 E17"/>
    </vehicle>
    <vehicle id="136" depart="1088.00">
        <route edges="E19 E20 E15 E16 E17 E22 E27"/>
    </vehicle>
    <vehicle id="137" depart="1096.00" departSpeed="max">
        <route edges="-E21 E15 E16 E17 E22 -E26"/>
    </vehicle>
    <vehicle id="138" depart="1104.00" departSpeed="max">
        <route edges="-E21 E15 E16 E17 E18 E19 E20"/>
    </vehicle>
    <vehicle id="139" depart="1112.00" departSpeed="max">
        <route edges="-E27 E23 E20 E21"/>
    </vehicle>
    <vehicle id="140" depart="1120.00">
        <route edges="E20 E15"/>
    </vehicle>
    <vehicle id="141" depart="1128.00">
        <route edges="E18 E19 E20 E15 E16"/>
    </vehicle>
    <vehicle id="142" depart="1136.00">
        <route edges="E16 E17 E25"/>
    </vehicle>
    <vehicle id="143" depart="1144.00">
        <route edges="E22 -E26"/>
    </vehicle>
    <vehicle id="144" depart="1152.00">
        <route edges="E15 E16"/>
    </vehicle>
    <vehicle id="146" depart="1168.00">
        <route edges="E18 E19 E20 E15 E16"/>
    </vehicle>
    <vehicle id="147" depart="1176.00">
        <route edges="E20"/>
    </vehicle>
    <vehicle id="149" depart="1192.00" departSpeed="max">
        <route edges="-E21 E15 E16 E17 E25"/>
    </vehicle>
    <vehicle id="150" depart="1200.00">
        <route edges="E23 E20"/>
    </vehicle>
    <vehicle id="151" depart="1208.00">
        <route edges="E22 E23 E20 E21"/>
    </vehicle>
    <vehicle id="152" depart="1216.00" departSpeed="max">
        <route edges="-E25 E22 -E26"/>
    </vehicle>
    <vehicle id="153" depart="1224.00" departSpeed="max">
        <route edges="E14 E15 E16 E17 E25"/>
    </vehicle>
    <vehicle id="154" depart="1232.00">
        <route edges="E22 E23 E20 E15 E16 E17 E25"/>
    </vehicle>
    <vehicle id="155" depart="1240.00">
        <route edges="E23 E20 E15"/>
    </vehicle>
    <vehicle id="156" depart="1248.00" departSpeed="max">
        <route edges="-E27 -E26"/>
    </vehicle>
    <vehicle id="157" depart="1256.00">
        <route edges="E20 E15 E16 E17 E25"/>
    </vehicle>
    <vehicle id="158" depart="1264.00">
        <route edges="E15 E16 E17 E18 E19 E20 E21"/>
    </vehicle>
    <vehicle id="159" depart="1272.00" departSpeed="max">
        <route edges="-E25 E22 E27"/>
    </vehicle>
    <vehicle id="160" depart="1280.00">
        <route edges="E23 E20 E15 E16 E17 E22 E27"/>
    </vehicle>
    <vehicle id="161" depart="1288.00">
        <route edges="E22 E23 E20 E15 E16 E17 E25"/>
    </vehicle>
    <vehicle id="163" depart="1304.00" departSpeed="max">
        <route edges="E14 E15 E16 E17 E22 E27"/>
    </vehicle>
    <vehicle id="164" depart="1312.00">
        <route edges="E22 E23 E20 E15 E16 E17 E25"/>
    </vehicle>
    <vehicle id="165" depart="1320.00">
        <route edges="E22 E23 E20 E15 E16"/>
    </vehicle>
    <vehicle id="166" depart="1328.00">
        <route edges="E22 -E26"/>
    </vehicle>
    <vehicle id="167" depart="1336.00">
        <route edges="E23 E20 E15 E16 E17 E25"/>
    </vehicle>
    <vehicle id="168" depart="1344.00" departSpeed="max">
        <route edges="-E27 E23 E24"/>
    </vehicle>
    <vehicle id="169" depart="1352.00">
        <route edges="E16 E17"/>
    </vehicle>
    <vehicle id="170" depart="1360.00">
        <route edges="E22 E23 E20 E15 E16"/>
    </vehicle>
    <vehicle id="172" depart="1376.00" departSpeed="max">
        <route edges="E14 E15 E16 E17 E25"/>
    </vehicle>
    <vehicle id="173" depart="1384.00" departSpeed="max">
        <route edges="E26 E23 E20 E15 E16"/>
    </vehicle>
    <vehicle id="174" depart="1392.00">
        <route edges="E18"/>
    </vehicle>
    <vehicle id="175" depart="1400.00" departSpeed="max">
        <route edges="E26 E23 E20"/>
    </vehicle>
    <vehicle id="176" depart="1408.00" departSpeed="max">
        <route edges="E26 E23 E20 E15 E16 E17 E22 -E26"/>
    </vehicle>
    <vehicle id="177" depart="1416.00" departSpeed="max">
        <route edges="E26 E23 E20 E15"/>
    </vehicle>
    <vehicle id="178" depart="1424.00" departSpeed="max">
        <route edges="E26 E23 E20 E15 E16"/>
    </vehicle>
    <vehicle id="179" depart="1432.00" departSpeed="max">
        <route edges="-E21 E15 E16 E17 E18 E19"/>
    </vehicle>
    <vehicle id="180" depart="1440.00">
        <route edges="E20 E15 E16 E17"/>
    </vehicle>
    <vehicle id="181" depart="1448.00">
        <route edges="E18 E19 E20"/>
    </vehicle>
    <vehicle id="182" depart="1456.00">
        <route edges="E15 E16 E17 E18 E19 E20 E21"/>
    </vehicle>
    <vehicle id="183" depart="1464.00" departSpeed="max">
        <route edges="-E27 E23 E20 E15 E16 E17 E22"/>
    </vehicle>
    <vehicle id="185" depart="1480.00">
        <route edges="E17 E22 E23"/>
    </vehicle>
    <vehicle id="186" depart="1488.00">
        <route edges="E20 E15 E16 E17 E22"/>
    </vehicle>
    <vehicle id="188" depart="1504.00">
        <route edges="E19 E20 E15 E16 E17"/>
    </vehicle>
    <vehicle id="189" depart="1512.00" departSpeed="max">
        <route edges="E14 -E20 E24"/>
    </vehicle>
    <vehicle id="190" depart="1520.00">
        <route edges="E20 E15 E16 E17"/>
    </vehicle>
    <vehicle id="191" depart="1528.00" departSpeed="max">
        <route edges="E14 E15 E16 E17 E18"/>
    </vehicle>
    <vehicle id="192" depart="1536.00">
        <route edges="E15 E16 E17"/>
    </vehicle>
    <vehicle id="193" depart="1544.00" departSpeed="max">
        <route edges="-E21 E15 E16 E17 E18"/>
    </vehicle>
    <vehicle id="194" depart="1552.00" departSpeed="max">
        <route edges="E26 E23 E20 E15 E16 E17 E22"/>
    </vehicle>
    <vehicle id="195" depart="1560.00">
        <route edges="E23 E20 E21"/>
    </vehicle>
    <vehicle id="196" depart="1568.00" departSpeed="max">
        <route edges="E14 E15 E16 E17 E18 E19 E20"/>
    </vehicle>
    <vehicle id="198" depart="1584.00">
        <route edges="E16 E17 E18 E19 E20 E21"/>
    </vehicle>
    <vehicle id="199" depart="1592.00">
        <route edges="E19"/>
    </vehicle>
    <vehicle id="200" depart="1600.00">
        <route edges="E16 E17 E18 E19 E20 E15"/>
    </vehicle>
    <vehicle id="201" depart="1608.00">
        <route edges="E16 E17 E25"/>
    </vehicle>
    <vehicle id="202" depart="1616.00">
        <route edges="E22 E23 E20 E15"/>
    </vehicle>
    <vehicle id="203" depart="1624.00" departSpeed="max">
        <route edges="-E21 E15 E16 E17 E18 E19 E20"/>
    </vehicle>
    <vehicle id="204" depart="1632.00">
        <route edges="E18 E19 E20 E15 E16 E17"/>
    </vehicle>
    <vehicle id="205" depart="1640.00">
        <route edges="E22 E23"/>
    </vehicle>
    <vehicle id="206" depart="1648.00">
        <route edges="E19 E20 E15 E16"/>
    </vehicle>
    <vehicle id="208" depart="1664.00" departSpeed="max">
        <route edges="-E27 E23 E20 E15 E16 E17 E18 E19"/>
    </vehicle>
    <vehicle id="209" depart="1672.00">
        <route edges="E22 -E26"/>
    </vehicle>
    <vehicle id="210" depart="1680.00">
        <route edges="E15 E16 E17 E18 E19 E20 E21"/>
    </vehicle>
    <vehicle id="211" depart="1688.00" departSpeed="max">
        <route edges="-E25 E22"/>
    </vehicle>
    <vehicle id="212" depart="1696.00">
        <route edges="E16"/>
    </vehicle>
    <vehicle id="214" depart="1712.00">
        <route edges="E20 E15 E16 E17 E22 E23"/>
    </vehicle>
    <vehicle id="215" depart="1720.00" departSpeed="max">
        <route edges="-E21 E15 E16 E17 E18"/>
    </vehicle>
    <vehicle id="216" depart="1728.00" departSpeed="max">
        <route edges="-E25 E22 E27"/>
    </vehicle>
    <vehicle id="218" depart="1744.00" departSpeed="max">
        <route edges="-E27 E23 E24"/>
    </vehicle>
    <vehicle id="219" depart="1752.00">
        <route edges="E16 E17 E18 E19 E24"/>
    </vehicle>
    <vehicle id="220" depart="1760.00">
        <route edges="E19 E20 E15 E16 E17 E22 E27"/>
    </vehicle>
    <vehicle id="221" depart="1768.00">
        <route edges="E18 E19 E20 E15 E16 E17 E22 E27"/>
    </vehicle>
    <vehicle id="222" depart="1776.00">
        <route edges="E23 E20 E21"/>
    </vehicle>
    <vehicle id="223" depart="1784.00">
        <route edges="E20"/>
    </vehicle>
    <vehicle id="224" depart="1792.00">
        <route edges="E22 E23 E20"/>
    </vehicle>
    <vehicle id="225" depart="1800.00">
        <route edges="E23"/>
    </vehicle>
    <vehicle id="226" depart="1808.00">
        <route edges="E16"/>
    </vehicle>
    <vehicle id="227" depart="1816.00" departSpeed="max">
        <route edges="-E27 E23 E20 E21"/>
    </vehicle>
    <vehicle id="228" depart="1824.00">
        <route edges="E20"/>
    </vehicle>
    <vehicle id="229" depart="1832.00">
        <route edges="E18 E19 E20 E15 E16"/>
    </vehicle>
    <vehicle id="230" depart="1840.00" departSpeed="max">
        <route edges="-E21 E15 E16 E17"/>
    </vehicle>
    <vehicle id="231" depart="1848.00" departSpeed="max">
        <route edges="-E27 E23 E20 E15 E16 E17"/>
    </vehicle>
    <vehicle id="232" depart="1856.00">
        <route edges="E17 E22 -E26"/>
    </vehicle>
    <vehicle id="233" depart="1864.00" departSpeed="max">
        <route edges="-E27 E23 E20 E15 E16 E17 E22"/>
    </vehicle>
    <vehicle id="235" depart="1880.00">
        <route edges="E15 E16 E17 E18 E19 E20"/>
    </vehicle>
    <vehicle id="236" depart="1888.00">
        <route edges="E15"/>
    </vehicle>
    <vehicle id="237" depart="1896.00">
        <route edges="E15 E16 E17 E25"/>
    </vehicle>
    <vehicle id="238" depart="1904.00">
        <route edges="E18 E19 E20 E15 E16 E17 E22"/>
    </vehicle>
    <vehicle id="239" depart="1912.00">
        <route edges="E22 E23"/>
    </vehicle>
    <vehicle id="241" depart="1928.00" departSpeed="max">
        <route edges="E14 E15 E16 E17 E22 E23"/>
    </vehicle>
    <vehicle id="242" depart="1936.00">
        <route edges="E22 E27"/>
    </vehicle>
    <vehicle id="243" depart="1944.00">
        <route edges="E15 E16 E17 E22 E23"/>
    </vehicle>
    <vehicle id="244" depart="1952.00">
        <route edges="E17 E18 E19 E20 E21"/>
    </vehicle>
    <vehicle id="245" depart="1960.00" departSpeed="max">
        <route edges="-E27 E23 E20 E15 E16"/>
    </vehicle>
    <vehicle id="247" depart="1976.00" departSpeed="max">
        <route edges="E14 E15 E16 E17 E22"/>
    </vehicle>
    <vehicle id="248" depart="1984.00">
        <route edges="E15"/>
    </vehicle>
    <vehicle id="249" depart="1992.00">
        <route edges="E16 E17 E22 -E26"/>
    </vehicle>
    <vehicle id="251" depart="2008.00">
        <route edges="E15 E16 E17 E18 E19 E20"/>
    </vehicle>
    <vehicle id="253" depart="2024.00" departSpeed="max">
        <route edges="-E21 E15 E16 E17 E18 E19"/>
    </vehicle>
    <vehicle id="255" depart="2040.00" departSpeed="max">
        <route edges="-E25 E18 E19 E20 E15 E16 E17"/>
    </vehicle>
    <vehicle id="256" depart="2048.00">
        <route edges="E20 E15 E16 E17 E18"/>
    </vehicle>
    <vehicle id="257" depart="2056.00">
        <route edges="E20 E15 E16 E17 E18 E19 E24"/>
    </vehicle>
    <vehicle id="258" depart="2064.00" departSpeed="max">
        <route edges="-E27 -E26"/>
    </vehicle>
    <vehicle id="260" depart="2080.00" departSpeed="max">
        <route edges="E26 E23 E20 E15 E16 E17"/>
    </vehicle>
    <vehicle id="261" depart="2088.00">
        <route edges="E19 E20 E15 E16 E17 E22 E23"/>
    </vehicle>
    <vehicle id="262" depart="2096.00">
        <route edges="E19 E20 E15 E16 E17 E22 E23"/>
    </vehicle>
    <vehicle id="263" depart="2104.00" departSpeed="max">
        <route edges="E26 E23 E20 E15"/>
    </vehicle>
    <vehicle id="265" depart="2120.00" departSpeed="max">
        <route edges="-E21 E15 E16 E17 E22"/>
    </vehicle>
    <vehicle id="266" depart="2128.00">
        <route edges="E17 E18 E19 E20 E15 E16"/>
    </vehicle>
    <vehicle id="267" depart="2136.00">
        <route edges="E19 E20 E15 E16 E17 E22 E23"/>
    </vehicle>
    <vehicle id="268" depart="2144.00" departSpeed="max">
        <route edges="-E25 E18 E19 E20 E21"/>
    </vehicle>
    <vehicle id="269" depart="2152.00">
        <route edges="E20 E15 E16 E17 E22 -E26"/>
    </vehicle>
    <vehicle id="270" depart="2160.00">
        <route edges="E22 E27"/>
    </vehicle>
    <vehicle id="271" depart="2168.00" departSpeed="max">
        <route edges="-E21 -E20"/>
    </vehicle>
    <vehicle id="272" depart="2176.00" departSpeed="max">
        <route edges="E14 E15 E16 E17 E22"/>
    </vehicle>
    <vehicle id="273" depart="2184.00" departSpeed="max">
        <route edges="E26 E23 E20 E15 E16 E17 E18"/>
    </vehicle>
    <vehicle id="274" depart="2192.00">
        <route edges="E20 E15 E16 E17 E22 -E26"/>
    </vehicle>
    <vehicle id="275" depart="2200.00">
        <route edges="E19 E20 E21"/>
    </vehicle>
    <vehicle id="276" depart="2208.00" departSpeed="max">
        <route edges="-E21 E15 E16 E17 E22 E23"/>
    </vehicle>
    <vehicle id="277" depart="2216.00">
        <route edges="E22 E23 E20 E21"/>
    </vehicle>
    <vehicle id="278" depart="2224.00" departSpeed="max">
        <route edges="-E21 E15 E16 E17 E22 E27"/>
    </vehicle>
    <vehicle id="279" depart="2232.00">
        <route edges="E20 E15 E16 E17"/>
    </vehicle>
    <vehicle id="280" depart="2240.00">
        <route edges="E15 E16 E17 E18"/>
    </vehicle>
    <vehicle id="281" depart="2248.00">
        <route edges="E17"/>
    </vehicle>
    <vehicle id="282" depart="2256.00">
        <route edges="E22 E23 E24"/>
    </vehicle>
    <vehicle id="283" depart="2264.00" departSpeed="max">
        <route edges="-E21 E15 E16 E17 E22 E27"/>
    </vehicle>
    <vehicle id="284" depart="2272.00">
        <route edges="E18 E19 E24"/>
    </vehicle>
    <vehicle id="285" depart="2280.00">
        <route edges="E19"/>
    </vehicle>
    <vehicle id="286" depart="2288.00">
        <route edges="E20 E15 E16 E17 E22 E27"/>
    </vehicle>
    <vehicle id="287" depart="2296.00" departSpeed="max">
        <route edges="-E27 E23 E24"/>
    </vehicle>
    <vehicle id="288" depart="2304.00">
        <route edges="E17 E18 E19"/>
    </vehicle>
    <vehicle id="289" depart="2312.00">
        <route edges="E16 E17 E22 E23"/>
    </vehicle>
    <vehicle id="290" depart="2320.00" departSpeed="max">
        <route edges="-E27 E23 E24"/>
    </vehicle>
    <vehicle id="291" depart="2328.00">
        <route edges="E22 -E26"/>
    </vehicle>
    <vehicle id="292" depart="2336.00">
        <route edges="E23 E20 E15 E16"/>
    </vehicle>
    <vehicle id="293" depart="2344.00">
        <route edges="E16 E17 E18 E19 E20 E21"/>
    </vehicle>
    <vehicle id="295" depart="2360.00">
        <route edges="E22 E23 E20 E15"/>
    </vehicle>
    <vehicle id="296" depart="2368.00" departSpeed="max">
        <route edges="-E25 E18 E19 E24"/>
    </vehicle>
    <vehicle id="297" depart="2376.00" departSpeed="max">
        <route edges="E14 E15 E16 E17 E25"/>
    </vehicle>
    <vehicle id="298" depart="2384.00">
        <route edges="E19 E20 E15 E16"/>
    </vehicle>
    <vehicle id="300" depart="2400.00" departSpeed="max">
        <route edges="-E21 E15 E16 E17 E22 E23"/>
    </vehicle>
    <vehicle id="301" depart="2408.00">
        <route edges="E16 E17 E22 E23"/>
    </vehicle>
    <vehicle id="302" depart="2416.00">
        <route edges="E19 E20 E15 E16 E17 E22"/>
    </vehicle>
    <vehicle id="303" depart="2424.00">
        <route edges="E16 E17 E18 E19 E24"/>
    </vehicle>
    <vehicle id="304" depart="2432.00" departSpeed="max">
        <route edges="-E21 E15 E16"/>
    </vehicle>
    <vehicle id="305" depart="2440.00">
        <route edges="E19 E20 E15 E16 E17"/>
    </vehicle>
    <vehicle id="306" depart="2448.00">
        <route edges="E18 E19"/>
    </vehicle>
    <vehicle id="307" depart="2456.00">
        <route edges="E17 E18"/>
    </vehicle>
    <vehicle id="308" depart="2464.00">
        <route edges="E20 E15 E16 E17"/>
    </vehicle>
    <vehicle id="309" depart="2472.00">
        <route edges="E19 E20 E15 E16"/>
    </vehicle>