<?xml version="1.0" encoding="UTF-8"?>

<!-- generated on 2026-01-21 03:06:10.419180 by randomTrips.py v1_18_0+0000-03ecfdea036
<configuration>
    <net-file value="C:\Users\91948\OneDrive\Desktop\latest\backend\sumo\networks\bangalore_hosmat\hosmat.net.xml"/>
    <route-file value="C:\Users\91948\OneDrive\Desktop\latest\backend\sumo\networks\bangalore_hosmat\episode_routes_fixed.rou.xml"/>
    <fringe-start-attributes value="departSpeed=&quot;max&quot;"/>
    <end value="5400.0"/>
    <period value="4.5"/>
</configuration>
-->

<!-- generated on 2026-01-21 03:06:10 by Eclipse SUMO duarouter Version 1.18.0
<configuration xmlns:xsi="http://www.w3.org/2001/XMLSchema-instance" xsi:noNamespaceSchemaLocation="http://sumo.dlr.de/xsd/duarouterConfiguration.xsd">

    <input>
        <net-file value="C:\Users\91948\OneDrive\Desktop\latest\backend\sumo\networks\bangalore_hosmat\hosmat.net.xml"/>
        <route-files value="trips.trips.xml"/>
    </input>

    <output>
        <output-file value="C:\Users\91948\OneDrive\Desktop\latest\backend\sumo\networks\bangalore_hosmat\episode_routes_fixed.rou.xml"/>
        <alternatives-output value="NUL"/>
    </output>

    <time>
        <begin value="0"/>
        <end value="5400.0"/>
    </time>

    <report>
        <no-warnings value="true"/>
        <ignore-errors value="true"/>
        <no-step-log value="true"/>
    </report>

</configuration>
-->

<routes xmlns:xsi="http://www.w3.org/2001/XMLSchema-instance" xsi:noNamespaceSchemaLocation="http://sumo.dlr.de/xsd/routes_file.xsd">
    <vehicle id="1" depart="4.50" departSpeed="max">
        <route edges="-E27 E23 E20 E15 E16"/>
    </vehicle>
    <vehicle id="2" depart="9.00">
        <route edges="E20 E15 E16 E17 E22"/>
    </vehicle>
    <vehicle id="3" depart="13.50">
        <route edges="E23 E20 E15 E16 E17 E22 -E26"/>
    </vehicle>
    <vehicle id="5" depart="22.50" departSpeed="max">
        <route edges="-E27 E23 E20"/>
    </vehicle>
    <vehicle id="7" depart="31.50">
        <route edges="E19 E20"/>
    </vehicle>
    <vehicle id="8" depart="36.00" departSpeed="max">
        <route edges="-E27 E23 E20 E21"/>
    </vehicle>
    <vehicle id="10" depart="45.00">
        <route edges="E22"/>
    </vehicle>
    <vehicle id="11" depart="49.50" departSpeed="max">
        <route edges="E14 E15"/>
    </vehicle>
    <vehicle id="12" depart="54.00" departSpeed="max">
        <route edges="E26 E23 E20 E15 E16 E17"/>
    </vehicle>
    <vehicle id="13" depart="58.50" departSpeed="max">
        <route edges="-E21 E15 E16 E17 E22 -E26"/>
    </vehicle>
    <vehicle id="14" depart="63.00">
        <route edges="E22 E23 E20 E21"/>
    </vehicle>
    <vehicle id="15" depart="67.50">
        <route edges="E22 E23"/>
    </vehicle>
    <vehicle id="16" depart="72.00">
        <route edges="E17 E22 E27"/>
    </vehicle>
    <vehicle id="17" depart="76.50">
        <route edges="E15 E16 E17 E18 E19 E20"/>
    </vehicle>
    <vehicle id="18" depart="81.00">
        <route edges="E22 E23 E20 E21"/>
    </vehicle>
    <vehicle id="19" depart="85.50">
        <route edges="E23 E20 E21"/>
    </vehicle>
    <vehicle id="21" depart="94.50" departSpeed="max">
        <route edges="-E27 E23 E20 E15 E16 E17"/>
    </vehicle>
    <vehicle id="22" depart="99.00" departSpeed="max">
        <route edges="-E21 E15 E16"/>
    </vehicle>
    <vehicle id="23" depart="103.50" departSpeed="max">
        <route edges="-E21 E15 E16"/>
    </vehicle>
    <vehicle id="24" depart="108.00">
        <route edges="E18"/>
    </vehicle>
    <vehicle id="25" depart="112.50">
        <route edges="E15"/>
    </vehicle>
    <vehicle id="26" depart="117.00" departSpeed="max">
        <route edges="-E27 E23 E20 E15 E16 E17 E22 E27"/>
    </vehicle>
    <vehicle id="27" depart="121.50">
        <route edges="E19 E20 E21"/>
    </vehicle>
    <vehicle id="28" depart="126.00" departSpeed="max">
        <route edges="-E25 E22 E23"/>
    </vehicle>
    <vehicle id="29" depart="130.50" departSpeed="max">
        <route edges="-E25 E18"/>
    </vehicle>
    <vehicle id="30" depart="135.00" departSpeed="max">
        <route edges="E26 E23 E20 E21"/>
    </vehicle>
    <vehicle id="31" depart="139.50">
        <route edges="E17 E22"/>
    </vehicle>
    <vehicle id="32" depart="144.00">
        <route edges="E22 E23"/>
    </vehicle>
    <vehicle id="34" depart="153.00" departSpeed="max">
        <route edges="E14 E15 E16"/>
    </vehicle>
    <vehicle id="35" depart="157.50" departSpeed="max">
        <route edges="-E25 E22 E27"/>
    </vehicle>
    <vehicle id="36" depart="162.00">
        <route edges="E23 E20 E15 E16 E17"/>
    </vehicle>
    <vehicle id="37" depart="166.50">
        <route edges="E19 E20 E15 E16 E17 E18"/>
    </vehicle>
    <vehicle id="38" depart="171.00">
        <route edges="E23 E20 E15 E16 E17 E18 E19"/>
    </vehicle>
    <vehicle id="39" depart="175.50" departSpeed="max">
        <route edges="-E27 E23 E20 E15 E16"/>
    </vehicle>
    <vehicle id="40" depart="180.00">
        <route edges="E17 E18 E19 E20 E15 E16"/>
    </vehicle>
    <vehicle id="41" depart="184.50">
        <route edges="E18 E19 E20 E15 E16 E17 E25"/>
    </vehicle>
    <vehicle id="42" depart="189.00">
        <route edges="E15 E16"/>
    </vehicle>
    <vehicle id="43" depart="193.50" departSpeed="max">
        <route edges="E26 E23 E20"/>
    </vehicle>
    <vehicle id="44" depart="198.00" departSpeed="max">
        <route edges="-E21 -E20"/>
    </vehicle>
    <vehicle id="45" depart="202.50" departSpeed="max">
        <route edges="-E21 E15 E16 E17 E18 E19 E20 E21"/>
    </vehicle>
    <vehicle id="46" depart="207.00">
        <route edges="E22 E23 E20 E15 E16 E17 E18"/>
    </vehicle>
    <vehicle id="48" depart="216.00" departSpeed="max">
        <route edges="E26 E23 E20"/>
    </vehicle>
    <vehicle id="49" depart="220.50" departSpeed="max">
        <route edges="E26 E23 E20 E15 E16 E17 E25"/>
    </vehicle>
    <vehicle id="51" depart="229.50">
        <route edges="E19 E20"/>
    </vehicle>
    <vehicle id="52" depart="234.00" departSpeed="max">
        <route edges="-E27 E23 E20 E21"/>
    </vehicle>
    <vehicle id="53" depart="238.50" departSpeed="max">
        <route edges="-E21 E15 E16 E17 E18 E19"/>
    </vehicle>
    <vehicle id="54" depart="243.00">
        <route edges="E16 E17 E22 E27"/>
    </vehicle>
    <vehicle id="55" depart="247.50">
        <route edges="E23 E20 E15 E16"/>
    </vehicle>
    <vehicle id="56" depart="252.00">
        <route edges="E17 E18 E19 E20 E15"/>
    </vehicle>
    <vehicle id="57" depart="256.50">
        <route edges="E23 E20 E15 E16 E17 E25"/>
    </vehicle>
    <vehicle id="58" depart="261.00" departSpeed="max">
        <route edges="E14 E21"/>
    </vehicle>
    <vehicle id="59" depart="265.50">
        <route edges="E18 E19 E20 E15"/>
    </vehicle>
    <vehicle id="60" depart="270.00">
        <route edges="E20"/>
    </vehicle>
    <vehicle id="61" depart="274.50">
        <route edges="E20"/>
    </vehicle>
    <vehicle id="64" depart="288.00">
        <route edges="E23 E24"/>
    </vehicle>
    <vehicle id="65" depart="292.50" departSpeed="max">
        <route edges="E14 -E20"/>
    </vehicle>
    <vehicle id="66" depart="297.00">
        <route edges="E23 E20 E15 E16 E17 E22 E27"/>
    </vehicle>
    <vehicle id="67" depart="301.50" departSpeed="max">
        <route edges="-E21 E15 E16 E17 E18 E19"/>
    </vehicle>
    <vehicle id="69" depart="310.50">
        <route edges="E20 E15 E16 E17 E22 -E26"/>
    </vehicle>
    <vehicle id="70" depart="315.00">
        <route edges="E16 E17 E18 E19 E20"/>
    </vehicle>
    <vehicle id="71" depart="319.50" departSpeed="max">
        <route edges="-E27 E23 E20 E15 E16 E17 E25"/>
    </vehicle>
    <vehicle id="72" depart="324.00">
        <route edges="E15"/>
    </vehicle>
    <vehicle id="73" depart="328.50">
        <route edges="E17 E22 E23"/>
    </vehicle>
    <vehicle id="74" depart="333.00" departSpeed="max">
        <route edges="-E25 E18 E19 E20 E15 E16 E17"/>
    </vehicle>
    <vehicle id="75" depart="337.50" departSpeed="max">
        <route edges="E26 E23 E20 E15 E16 E17 E22"/>
    </vehicle>
    <vehicle id="76" depart="342.00">
        <route edges="E16 E17 E18 E19 E20"/>
    </vehicle>
    <vehicle id="77" depart="346.50" departSpeed="max">
        <route edges="-E21 E15 E16"/>
    </vehicle>
    <vehicle id="78" depart="351.00" departSpeed="max">
        <route edges="E14 E21"/>
    </vehicle>
    <vehicle id="79" depart="355.50" departSpeed="max">
        <route edges="-E27 E23 E20 E15 E16"/>
    </vehicle>
    <vehicle id="81" depart="364.50" departSpeed="max">
        <route edges="-E27 E23 E20 E15 E16 E17 E25"/>
    </vehicle>
    <vehicle id="83" depart="373.50" departSpeed="max">
        <route edges="-E27 E23 E20 E15 E16 E17 E22"/>
    </vehicle>
    <vehicle id="84" depart="378.00" departSpeed="max">
        <route edges="-E25 E22 -E26"/>
    </vehicle>
    <vehicle id="85" depart="382.50" departSpeed="max">
        <route edges="E26 E23 E20"/>
    </vehicle>
    <vehicle id="86" depart="387.00">
        <route edges="E16 E17 E22 E23"/>
    </vehicle>
    <vehicle id="87" depart="391.50">
        <route edges="E22 E23 E20 E15"/>
    </vehicle>
    <vehicle id="88" depart="396.00" departSpeed="max">
        <route edges="-E21 E15 E16 E17 E18 E19"/>
    </vehicle>
    <vehicle id="89" depart="400.50">
        <route edges="E15 E16 E17 E18 E19"/>
    </vehicle>
    <vehicle id="90" depart="405.00">
        <route edges="E20 E15 E16 E17 E22"/>
    </vehicle>
    <vehicle id="91" depart="409.50" departSpeed="max">
        <route edges="E26 E23 E20 E15 E16 E17 E22 -E26"/>
    </vehicle>
    <vehicle id="92" depart="414.00">
        <route edges="E15 E16 E17"/>
    </vehicle>
    <vehicle id="93" depart="418.50">
        <route edges="E23 E20 E15 E16"/>
    </vehicle>
    <vehicle id="94" depart="423.00" departSpeed="max">
        <route edges="-E25 E18 E19"/>
    </vehicle>
    <vehicle id="95" depart="427.50">
        <route edges="E15 E16"/>
    </vehicle>
    <vehicle id="96" depart="432.00" departSpeed="max">
        <route edges="-E27 E23 E20 E15 E16 E17 E25"/>
    </vehicle>
    <vehicle id="97" depart="436.50">
        <route edges="E16 E17 E25"/>
    </vehicle>
    <vehicle id="99" depart="445.50" departSpeed="max">
        <route edges="E26 E23 E24"/>
    </vehicle>
    <vehicle id="100" depart="450.00" departSpeed="max">
        <route edges="E26 E23 E20 E15 E16 E17 E25"/>
    </vehicle>
    <vehicle id="101" depart="454.50">
        <route edges="E22 E23 E20 E15"/>
    </vehicle>
    <vehicle id="102" depart="459.00">
        <route edges="E16 E17 E18 E19 E20 E15"/>
    </vehicle>
    <vehicle id="104" depart="468.00">
        <route edges="E15 E16 E17 E22 E27"/>
    </vehicle>
    <vehicle id="105" depart="472.50" departSpeed="max">
        <route edges="-E27 E23"/>
    </vehicle>
    <vehicle id="106" depart="477.00">
        <route edges="E16 E17 E18"/>
    </vehicle>
    <vehicle id="107" depart="481.50" departSpeed="max">
        <route edges="E26 E27"/>
    </vehicle>
    <vehicle id="108" depart="486.00">
        <route edges="E17 E22 E23"/>
    </vehicle>
    <vehicle id="109" depart="490.50" departSpeed="max">
        <route edges="-E25 E18 E19 E20 E15 E16 E17"/>
    </vehicle>
    <vehicle id="110" depart="495.00" departSpeed="max">
        <route edges="E26 E23 E20 E21"/>
    </vehicle>
    <vehicle id="111" depart="499.50">
        <route edges="E17 E22 E23"/>
    </vehicle>
    <vehicle id="113" depart="508.50">
        <route edges="E17 E18 E19 E24"/>
    </vehicle>
    <vehicle id="114" depart="513.00" departSpeed="max">
        <route edges="-E25 E22 E27"/>
    </vehicle>
    <vehicle id="115" depart="517.50" departSpeed="max">
        <route edges="-E21 E15"/>
    </vehicle>
    <vehicle id="116" depart="522.00">
        <route edges="E18 E19 E20 E15 E16 E17 E22"/>
    </vehicle>
    <vehicle id="117" depart="526.50" departSpeed="max">
        <route edges="-E27 -E26"/>
    </vehicle>
    <vehicle id="118" depart="531.00">
        <route edges="E23 E20 E15 E16"/>
    </vehicle>
    <vehicle id="119" depart="535.50">
        <route edges="E18 E19 E20 E21"/>
    </vehicle>
    <vehicle id="120" depart="540.00">
        <route edges="E15 E16 E17 E18 E19 E20 E21"/>
    </vehicle>
    <vehicle id="121" depart="544.50">
        <route edges="E17 E22 E27"/>
    </vehicle>
    <vehicle id="122" depart="549.00" departSpeed="max">
        <route edges="-E25 E22 E23"/>
    </vehicle>
    <vehicle id="123" depart="553.50" departSpeed="max">
        <route edges="-E27 E23 E20 E15 E16 E17 E18"/>
    </vehicle>
    <vehicle id="124" depart="558.00">
        <route edges="E19 E20 E15 E16 E17"/>
    </vehicle>
    <vehicle id="125" depart="562.50" departSpeed="max">
        <route edges="E14 E15 E16 E17 E22 E23"/>
    </vehicle>
    <vehicle id="126" depart="567.00" departSpeed="max">
        <route edges="-E21 E15 E16 E17 E18 E19"/>
    </vehicle>
    <vehicle id="127" depart="571.50" departSpeed="max">
        <route edges="E26 E27"/>
    </vehicle>
    <vehicle id="128" depart="576.00" departSpeed="max">
        <route edges="-E21 E15"/>
    </vehicle>
    <vehicle id="129" depart="580.50" departSpeed="max">
        <route edges="-E27 E23 E20 E15 E16 E17 E22 E27"/>
    </vehicle>
    <vehicle id="130" depart="585.00">
        <route edges="E23 E20 E15 E16 E17 E25"/>
    </vehicle>
    <vehicle id="131" depart="589.50">
        <route edges="E15"/>
    </vehicle>
    <vehicle id="132" depart="594.00">
        <route edges="E22"/>
    </vehicle>
    <vehicle id="133" depart="598.50">
        <route edges="E18 E19 E20 E15 E16 E17 E22 E27"/>
    </vehicle>
    <vehicle id="135" depart="607.50">
        <route edges="E22 E23 E20 E15 E16 E17"/>
    </vehicle>
    <vehicle id="136" depart="612.00">
        <route edges="E19 E20 E15 E16 E17 E22 E27"/>
    </vehicle>
    <vehicle id="137" depart="616.50" departSpeed="max">
        <route edges="-E21 E15 E16 E17 E22 -E26"/>
    </vehicle>
    <vehicle id="138" depart="621.00" departSpeed="max">
        <route edges="-E21 E15 E16 E17 E18 E19 E20"/>
    </vehicle>
    <vehicle id="139" depart="625.50" departSpeed="max">
        <route edges="-E27 E23 E20 E21"/>
    </vehicle>
    <vehicle id="140" depart="630.00">
        <route edges="E20 E15"/>
    </vehicle>
    <vehicle id="141" depart="634.50">
        <route edges="E18 E19 E20 E15 E16"/>
    </vehicle>
    <vehicle id="142" depart="639.00">
        <route edges="E16 E17 E25"/>
    </vehicle>
    <vehicle id="143" depart="643.50">
        <route edges="E22 -E26"/>
    </vehicle>
    <vehicle id="144" depart="648.00">
        <route edges="E15 E16"/>
    </vehicle>
    <vehicle id="146" depart="657.00">
        <route edges="E18 E19 E20 E15 E16"/>
    </vehicle>
    <vehicle id="147" depart="661.50">
        <route edges="E20"/>
    </vehicle>
    <vehicle id="149" depart="670.50" departSpeed="max">
        <route edges="-E21 E15 E16 E17 E25"/>
    </vehicle>
    <vehicle id="150" depart="675.00">
        <route edges="E23 E20"/>
    </vehicle>
    <vehicle id="151" depart="679.50">
        <route edges="E22 E23 E20 E21"/>
    </vehicle>
    <vehicle id="152" depart="684.00" departSpeed="max">
        <route edges="-E25 E22 -E26"/>
    </vehicle>
    <vehicle id="153" depart="688.50" departSpeed="max">
        <route edges="E14 E15 E16 E17 E25"/>
    </vehicle>
    <vehicle id="154" depart="693.00">
        <route edges="E22 E23 E20 E15 E16 E17 E25"/>
    </vehicle>
    <vehicle id="155" depart="697.50">
        <route edges="E23 E20 E15"/>
    </vehicle>
    <vehicle id="156" depart="702.00" departSpeed="max">
        <route edges="-E27 -E26"/>
    </vehicle>
    <vehicle id="157" depart="706.50">
        <route edges="E20 E15 E16 E17 E25"/>
    </vehicle>
    <vehicle id="158" depart="711.00">
        <route edges="E15 E16 E17 E18 E19 E20 E21"/>
    </vehicle>
    <vehicle id="159" depart="715.50" departSpeed="max">
        <route edges="-E25 E22 E27"/>
    </vehicle>
    <vehicle id="160" depart="720.00">
        <route edges="E23 E20 E15 E16 E17 E22 E27"/>
    </vehicle>
    <vehicle id="161" depart="724.50">
        <route edges="E22 E23 E20 E15 E16 E17 E25"/>
    </vehicle>
    <vehicle id="163" depart="733.50" departSpeed="max">
        <route edges="E14 E15 E16 E17 E22 E27"/>
    </vehicle>
    <vehicle id="164" depart="738.00">
        <route edges="E22 E23 E20 E15 E16 E17 E25"/>
    </vehicle>
    <vehicle id="165" depart="742.50">
        <route edges="E22 E23 E20 E15 E16"/>
    </vehicle>
    <vehicle id="166" depart="747.00">
        <route edges="E22 -E26"/>
    </vehicle>
    <vehicle id="167" depart="751.50">
        <route edges="E23 E20 E15 E16 E17 E25"/>
    </vehicle>
    <vehicle id="168" depart="756.00" departSpeed="max">
        <route edges="-E27 E23 E24"/>
    </vehicle>
    <vehicle id="169" depart="760.50">
        <route edges="E16 E17"/>
    </vehicle>
    <vehicle id="170" depart="765.00">
        <route edges="E22 E23 E20 E15 E16"/>
    </vehicle>
    <vehicle id="172" depart="774.00" departSpeed="max">
        <route edges="E14 E15 E16 E17 E25"/>
    </vehicle>
    <vehicle id="173" depart="778.50" departSpeed="max">
        <route edges="E26 E23 E20 E15 E16"/>
    </vehicle>
    <vehicle id="174" depart="783.00">
        <route edges="E18"/>
    </vehicle>
    <vehicle id="175" depart="787.50" departSpeed="max">
        <route edges="E26 E23 E20"/>
    </vehicle>
    <vehicle id="176" depart="792.00" departSpeed="max">
        <route edges="E26 E23 E20 E15 E16 E17 E22 -E26"/>
    </vehicle>
    <vehicle id="177" depart="796.50" departSpeed="max">
        <route edges="E26 E23 E20 E15"/>
    </vehicle>
    <vehicle id="178" depart="801.00" departSpeed="max">
        <route edges="E26 E23 E20 E15 E16"/>
    </vehicle>
    <vehicle id="179" depart="805.50" departSpeed="max">
        <route edges="-E21 E15 E16 E17 E18 E19"/>
    </vehicle>
    <vehicle id="180" depart="810.00">
        <route edges="E20 E15 E16 E17"/>
    </vehicle>
    <vehicle id="181" depart="814.50">
        <route edges="E18 E19 E20"/>
    </vehicle>
    <vehicle id="182" depart="819.00">
        <route edges="E15 E16 E17 E18 E19 E20 E21"/>
    </vehicle>
    <vehicle id="183" depart="823.50" departSpeed="max">
        <route edges="-E27 E23 E20 E15 E16 E17 E22"/>
    </vehicle>
    <vehicle id="185" depart="832.50">
        <route edges="E17 E22 E23"/>
    </vehicle>
    <vehicle id="186" depart="837.00">
        <route edges="E20 E15 E16 E17 E22"/>
    </vehicle>
    <vehicle id="188" depart="846.00">
        <route edges="E19 E20 E15 E16 E17"/>
    </vehicle>
    <vehicle id="189" depart="850.50" departSpeed="max">
        <route edges="E14 -E20 E24"/>
    </vehicle>
    <vehicle id="190" depart="855.00">
        <route edges="E20 E15 E16 E17"/>
    </vehicle>
    <vehicle id="191" depart="859.50" departSpeed="max">
        <route edges="E14 E15 E16 E17 E18"/>
    </vehicle>
    <vehicle id="192" depart="864.00">
        <route edges="E15 E16 E17"/>
    </vehicle>
    <vehicle id="193" depart="868.50" departSpeed="max">
        <route edges="-E21 E15 E16 E17 E18"/>
    </vehicle>
    <vehicle id="194" depart="873.00" departSpeed="max">
        <route edges="E26 E23 E20 E15 E16 E17 E22"/>
    </vehicle>
    <vehicle id="195" depart="877.50">
        <route edges="E23 E20 E21"/>
    </vehicle>
    <vehicle id="196" depart="882.00" departSpeed="max">
        <route edges="E14 E15 E16 E17 E18 E19 E20"/>
    </vehicle>
    <vehicle id="198" depart="891.00">
        <route edges="E16 E17 E18 E19 E20 E21"/>
    </vehicle>
    <vehicle id="199" depart="895.50">
        <route edges="E19"/>
    </vehicle>
    <vehicle id="200" depart="900.00">
        <route edges="E16 E17 E18 E19 E20 E15"/>
    </vehicle>
    <vehicle id="201" depart="904.50">
        <route edges="E16 E17 E25"/>
    </vehicle>
    <vehicle id="202" depart="909.00">
        <route edges="E22 E23 E20 E15"/>
    </vehicle>
    <vehicle id="203" depart="913.50" departSpeed="max">
        <route edges="-E21 E15 E16 E17 E18 E19 E20"/>
    </vehicle>
    <vehicle id="204" depart="918.00">
        <route edges="E18 E19 E20 E15 E16 E17"/>
    </vehicle>
    <vehicle id="205" depart="922.50">
        <route edges="E22 E23"/>
    </vehicle>
    <vehicle id="206" depart="927.00">
        <route edges="E19 E20 E15 E16"/>
    </vehicle>
    <vehicle id="208" depart="936.00" departSpeed="max">
        <route edges="-E27 E23 E20 E15 E16 E17 E18 E19"/>
    </vehicle>
    <vehicle id="209" depart="940.50">
        <route edges="E22 -E26"/>
    </vehicle>
    <vehicle id="210" depart="945.00">
        <route edges="E15 E16 E17 E18 E19 E20 E21"/>
    </vehicle>
    <vehicle id="211" depart="949.50" departSpeed="max">
        <route edges="-E25 E22"/>
    </vehicle>
    <vehicle id="212" depart="954.00">
        <route edges="E16"/>
    </vehicle>
    <vehicle id="214" depart="963.00">
        <route edges="E20 E15 E16 E17 E22 E23"/>
    </vehicle>
    <vehicle id="215" depart="967.50" departSpeed="max">
        <route edges="-E21 E15 E16 E17 E18"/>
    </vehicle>
    <vehicle id="216" depart="972.00" departSpeed="max">
        <route edges="-E25 E22 E27"/>
    </vehicle>
    <vehicle id="218" depart="981.00" departSpeed="max">
        <route edges="-E27 E23 E24"/>
    </vehicle>
    <vehicle id="219" depart="985.50">
        <route edges="E16 E17 E18 E19 E24"/>
    </vehicle>
    <vehicle id="220" depart="990.00">
        <route edges="E19 E20 E15 E16 E17 E22 E27"/>
    </vehicle>
    <vehicle id="221" depart="994.50">
        <route edges="E18 E19 E20 E15 E16 E17 E22 E27"/>
    </vehicle>
    <vehicle id="222" depart="999.00">
        <route edges="E23 E20 E21"/>
    </vehicle>
    <vehicle id="223" depart="1003.50">
        <route edges="E20"/>
    </vehicle>
    <vehicle id="224" depart="1008.00">
        <route edges="E22 E23 E20"/>
    </vehicle>
    <vehicle id="225" depart="1012.50">
        <route edges="E23"/>
    </vehicle>
    <vehicle id="226" depart="1017.00">
        <route edges="E16"/>
    </vehicle>
    <vehicle id="227" depart="1021.50" departSpeed="max">
        <route edges="-E27 E23 E20 E21"/>
    </vehicle>
    <vehicle id="228" depart="1026.00">
        <route edges="E20"/>
    </vehicle>
    <vehicle id="229" depart="1030.50">
        <route edges="E18 E19 E20 E15 E16"/>
    </vehicle>
    <vehicle id="230" depart="1035.00" departSpeed="max">
        <route edges="-E21 E15 E16 E17"/>
    </vehicle>
    <vehicle id="231" depart="1039.50" departSpeed="max">
        <route edges="-E27 E23 E20 E15 E16 E17"/>
    </vehicle>
    <vehicle id="232" depart="1044.00">
        <route edges="E17 E22 -E26"/>
    </vehicle>
    <vehicle id="233" depart="1048.50" departSpeed="max">
        <route edges="-E27 E23 E20 E15 E16 E17 E22"/>
    </vehicle>
    <vehicle id="235" depart="1057.50">
        <route edges="E15 E16 E17 E18 E19 E20"/>
    </vehicle>
    <vehicle id="236" depart="1062.00">
        <route edges="E15"/>
    </vehicle>
    <vehicle id="237" depart="1066.50">
        <route edges="E15 E16 E17 E25"/>
    </vehicle>
    <vehicle id="238" depart="1071.00">
        <route edges="E18 E19 E20 E15 E16 E17 E22"/>
    </vehicle>
    <vehicle id="239" depart="1075.50">
        <route edges="E22 E23"/>
    </vehicle>
    <vehicle id="241" depart="1084.50" departSpeed="max">
        <route edges="E14 E15 E16 E17 E22 E23"/>
    </vehicle>
    <vehicle id="242" depart="1089.00">
        <route edges="E22 E27"/>
    </vehicle>
    <vehicle id="243" depart="1093.50">
        <route edges="E15 E16 E17 E22 E23"/>
    </vehicle>
    <vehicle id="244" depart="1098.00">
        <route edges="E17 E18 E19 E20 E21"/>
    </vehicle>
    <vehicle id="245" depart="1102.50" departSpeed="max">
        <route edges="-E27 E23 E20 E15 E16"/>
    </vehicle>
    <vehicle id="247" depart="1111.50" departSpeed="max">
        <route edges="E14 E15 E16 E17 E22"/>
    </vehicle>
    <vehicle id="248" depart="1116.00">
        <route edges="E15"/>
    </vehicle>
    <vehicle id="249" depart="1120.50">
        <route edges="E16 E17 E22 -E26"/>
    </vehicle>
    <vehicle id="251" depart="1129.50">
        <route edges="E15 E16 E17 E18 E19 E20"/>
    </vehicle>
    <vehicle id="253" depart="1138.50" departSpeed="max">
        <route edges="-E21 E15 E16 E17 E18 E19"/>
    </vehicle>
    <vehicle id="255" depart="1147.50" departSpeed="max">
        <route edges="-E25 E18 E19 E20 E15 E16 E17"/>
    </vehicle>
    <vehicle id="256" depart="1152.00">
        <route edges="E20 E15 E16 E17 E18"/>
    </vehicle>
    <vehicle id="257" depart="1156.50">
        <route edges="E20 E15 E16 E17 E18 E19 E24"/>
    </vehicle>
    <vehicle id="258" depart="1161.00" departSpeed="max">
        <route edges="-E27 -E26"/>
    </vehicle>
    <vehicle id="260" depart="1170.00" departSpeed="max">
        <route edges="E26 E23 E20 E15 E16 E17"/>
    </vehicle>
    <vehicle id="261" depart="1174.50">
        <route edges="E19 E20 E15 E16 E17 E22 E23"/>
    </vehicle>
    <vehicle id="262" depart="1179.00">
        <route edges="E19 E20 E15 E16 E17 E22 E23"/>
    </vehicle>
    <vehicle id="263" depart="1183.50" departSpeed="max">
        <route edges="E26 E23 E20 E15"/>
    </vehicle>
    <vehicle id="265" depart="1192.50" departSpeed="max">
        <route edges="-E21 E15 E16 E17 E22"/>
    </vehicle>
    <vehicle id="266" depart="1197.00">
        <route edges="E17 E18 E19 E20 E15 E16"/>
    </vehicle>
    <vehicle id="267" depart="1201.50">
        <route edges="E19 E20 E15 E16 E17 E22 E23"/>
    </vehicle>
    <vehicle id="268" depart="1206.00" departSpeed="max">
        <route edges="-E25 E18 E19 E20 E21"/>
    </vehicle>
    <vehicle id="269" depart="1210.50">
        <route edges="E20 E15 E16 E17 E22 -E26"/>
    </vehicle>
    <vehicle id="270" depart="1215.00">
        <route edges="E22 E27"/>
    </vehicle>
    <vehicle id="271" depart="1219.50" departSpeed="max">
        <route edges="-E21 -E20"/>
    </vehicle>
    <vehicle id="272" depart="1224.00" departSpeed="max">
        <route edges="E14 E15 E16 E17 E22"/>
    </vehicle>
    <vehicle id="273" depart="1228.50" departSpeed="max">
        <route edges="E26 E23 E20 E15 E16 E17 E18"/>
    </vehicle>
    <vehicle id="274" depart="1233.00">
        <route edges="E20 E15 E16 E17 E22 -E26"/>
    </vehicle>
    <vehicle id="275" depart="1237.50">
        <route edges="E19 E20 E21"/>
    </vehicle>
    <vehicle id="276" depart="1242.00" departSpeed="max">
        <route edges="-E21 E15 E16 E17 E22 E23"/>
    </vehicle>
    <vehicle id="277" depart="1246.50">
        <route edges="E22 E23 E20 E21"/>
    </vehicle>
    <vehicle id="278" depart="1251.00" departSpeed="max">
        <route edges="-E21 E15 E16 E17 E22 E27"/>
    </vehicle>
    <vehicle id="279" depart="1255.50">
        <route edges="E20 E15 E16 E17"/>
    </vehicle>
    <vehicle id="280" depart="1260.00">
        <route edges="E15 E16 E17 E18"/>
    </vehicle>
    <vehicle id="281" depart="1264.50">
        <route edges="E17"/>
    </vehicle>
    <vehicle id="282" depart="1269.00">
        <route edges="E22 E23 E24"/>
    </vehicle>
    <vehicle id="283" depart="1273.50" departSpeed="max">
        <route edges="-E21 E15 E16 E17 E22 E27"/>
    </vehicle>
    <vehicle id="284" depart="1278.00">
        <route edges="E18 E19 E24"/>
    </vehicle>
    <vehicle id="285" depart="1282.50">
        <route edges="E19"/>
    </vehicle>
    <vehicle id="286" depart="1287.00">
        <route edges="E20 E15 E16 E17 E22 E27"/>
    </vehicle>
    <vehicle id="287" depart="1291.50" departSpeed="max">
        <route edges="-E27 E23 E24"/>
    </vehicle>
    <vehicle id="288" depart="1296.00">
        <route edges="E17 E18 E19"/>
    </vehicle>
    <vehicle id="289" depart="1300.50">
        <route edges="E16 E17 E22 E23"/>
    </vehicle>
    <vehicle id="290" depart="1305.00" departSpeed="max">
        <route edges="-E27 E23 E24"/>
    </vehicle>
    <vehicle id="291" depart="1309.50">
        <route edges="E22 -E26"/>
    </vehicle>
    <vehicle id="292" depart="1314.00">
        <route edges="E23 E20 E15 E16"/>
    </vehicle>
    <vehicle id="293" depart="1318.50">
        <route edges="E16 E17 E18 E19 E20 E21"/>
    </vehicle>
    <vehicle id="295" depart="1327.50">
        <route edges="E22 E23 E20 E15"/>
    </vehicle>
    <vehicle id="296" depart="1332.00" departSpeed="max">
        <route edges="-E25 E18 E19 E24"/>
    </vehicle>
    <vehicle id="297" depart="1336.50" departSpeed="max">
        <route edges="E14 E15 E16 E17 E25"/>
    </vehicle>
    <vehicle id="298" depart="1341.00">
        <route edges="E19 E20 E15 E16"/>
    </vehicle>
    <vehicle id="300" depart="1350.00" departSpeed="max">
        <route edges="-E21 E15 E16 E17 E22 E23"/>
    </vehicle>
    <vehicle id="301" depart="1354.50">
        <route edges="E16 E17 E22 E23"/>
    </vehicle>
    <vehicle id="302" depart="1359.00">
        <route edges="E19 E20 E15 E16 E17 E22"/>
    </vehicle>
    <vehicle id="303" depart="1363.50">
        <route edges="E16 E17 E18 E19 E24"/>
    </vehicle>
    <vehicle id="304" depart="1368.00" departSpeed="max">
        <route edges="-E21 E15 E16"/>
    </vehicle>
    <vehicle id="305" depart="1372.50">
        <route edges="E19 E20 E15 E16 E17"/>
    </vehicle>
    <vehicle id="306" depart="1377.00">
        <route edges="E18 E19"/>
    </vehicle>
    <vehicle id="307" depart="1381.50">
        <route edges="E17 E18"/>
    </vehicle>
    <vehicle id="308" depart="1386.00">
        <route edges="E20 E15 E16 E17"/>
    </vehicle>
    <vehicle id="309" depart="1390.50">
        <route edges="E19 E20 E15 E16"/>
    </vehicle>
    <vehicle id="310" depart="1395.00" departSpeed="max">
        <route edges="-E27 -E26"/>
    </vehicle>