<?xml version="1.0" encoding="UTF-8"?>
<configuration xmlns:xsi="http://www.w3.org/2001/XMLSchema-instance" xsi:noNamespaceSchemaLocation="http://sumo.dlr.de/xsd/sumoConfiguration.xsd">
    <input>
        <net-file value="hosmat.net.xml"/>
        <route-files value="routes.rou.xml"/>
        <additional-files value="emergency.add.xml"/>
    </input>
    <time>
        <begin value="0"/>
        <end value="5400"/>
    </time>
</configuration>
