<?xml version="1.0" encoding="UTF-8"?>

<!-- generated on 2026-01-20 12:28:05 by Eclipse SUMO netconvert Version 1.18.0
<configuration xmlns:xsi="http://www.w3.org/2001/XMLSchema-instance" xsi:noNamespaceSchemaLocation="http://sumo.dlr.de/xsd/netconvertConfiguration.xsd">

    <input>
        <node-files value="C:\Users\91948\OneDrive\Desktop\latest\backend\sumo\networks\single_intersection\single.nod.xml"/>
        <edge-files value="C:\Users\91948\OneDrive\Desktop\latest\backend\sumo\networks\single_intersection\single.edg.xml"/>
        <connection-files value="C:\Users\91948\OneDrive\Desktop\latest\backend\sumo\networks\single_intersection\single.con.xml"/>
    </input>

    <output>
        <output-file value="C:\Users\91948\OneDrive\Desktop\latest\backend\sumo\networks\single_intersection\single.net.xml"/>
    </output>

    <tls_building>
        <tls.guess-signals value="true"/>
        <tls.yellow.time value="3"/>
        <tls.allred.time value="2"/>
        <tls.default-type value="actuated"/>
    </tls_building>

</configuration>
-->

<net version="1.16" junctionCornerDetail="5" limitTurnSpeed="5.50" xmlns:xsi="http://www.w3.org/2001/XMLSchema-instance" xsi:noNamespaceSchemaLocation="http://sumo.dlr.de/xsd/net_file.xsd">

    <location netOffset="500.00,500.00" convBoundary="0.00,0.00,1000.00,1000.00" origBoundary="-500.00,-500.00,500.00,500.00" projParameter="!"/>

    <edge id=":C_0" function="internal">
        <lane id=":C_0_0" index="0" speed="6.51" length="9.03" shape="495.20,510.40 494.85,507.95 493.80,506.20 492.05,505.15 489.60,504.80"/>
    </edge>
    <edge id=":C_1" function="internal">
        <lane id=":C_1_0" index="0" speed="13.89" length="20.80" shape="495.20,510.40 495.20,489.60"/>
    </edge>
    <edge id=":C_2" function="internal">
        <lane id=":C_2_0" index="0" speed="9.26" length="10.42" shape="498.40,510.40 499.15,505.15 501.40,501.40 502.04,501.02"/>
    </edge>
    <edge id=":C_12" function="internal">
        <lane id=":C_12_0" index="0" speed="9.26" length="8.93" shape="502.04,501.02 505.15,499.15 510.40,498.40"/>
    </edge>
    <edge id=":C_3" function="internal">
        <lane id=":C_3_0" index="0" speed="6.51" length="9.03" shape="510.40,504.80 507.95,505.15 506.20,506.20 505.15,507.95 504.80,510.40"/>
    </edge>
    <edge id=":C_4" function="internal">
        <lane id=":C_4_0" index="0" speed="13.89" length="20.80" shape="510.40,504.80 489.60,504.80"/>
    </edge>
    <edge id=":C_5" function="internal">
        <lane id=":C_5_0" index="0" speed="9.26" length="10.42" shape="510.40,501.60 505.15,500.85 501.40,498.60 501.02,497.96"/>
    </edge>
    <edge id=":C_13" function="internal">
        <lane id=":C_13_0" index="0" speed="9.26" length="8.93" shape="501.02,497.96 499.15,494.85 498.40,489.60"/>
    </edge>
    <edge id=":C_6" function="internal">
        <lane id=":C_6_0" index="0" speed="6.51" length="9.03" shape="504.80,489.60 505.15,492.05 506.20,493.80 507.95,494.85 510.40,495.20"/>
    </edge>
    <edge id=":C_7" function="internal">
        <lane id=":C_7_0" index="0" speed="13.89" length="20.80" shape="504.80,489.60 504.80,510.40"/>
    </edge>
    <edge id=":C_8" function="internal">
        <lane id=":C_8_0" index="0" speed="9.26" length="10.42" shape="501.60,489.60 500.85,494.85 498.60,498.60 497.96,498.98"/>
    </edge>
    <edge id=":C_14" function="internal">
        <lane id=":C_14_0" index="0" speed="9.26" length="8.93" shape="497.96,498.98 494.85,500.85 489.60,501.60"/>
    </edge>
    <edge id=":C_9" function="internal">
        <lane id=":C_9_0" index="0" speed="6.51" length="9.03" shape="489.60,495.20 492.05,494.85 493.80,493.80 494.85,492.05 495.20,489.60"/>
    </edge>
    <edge id=":C_10" function="internal">
        <lane id=":C_10_0" index="0" speed="13.89" length="20.80" shape="489.60,495.20 510.40,495.20"/>
    </edge>
    <edge id=":C_11" function="internal">
        <lane id=":C_11_0" index="0" speed="9.26" length="10.42" shape="489.60,498.40 494.85,499.15 498.60,501.40 498.98,502.04"/>
    </edge>
    <edge id=":C_15" function="internal">
        <lane id=":C_15_0" index="0" speed="9.26" length="8.93" shape="498.98,502.04 500.85,505.15 501.60,510.40"/>
    </edge>
    <edge id=":E_0" function="internal">
        <lane id=":E_0_0" index="0" speed="3.65" length="4.67" shape="1000.00,498.40 1001.20,499.20 1001.60,500.00 1001.20,500.80 1000.00,501.60"/>
    </edge>
    <edge id=":N_0" function="internal">
        <lane id=":N_0_0" index="0" speed="3.65" length="4.67" shape="501.60,1000.00 500.80,1001.20 500.00,1001.60 499.20,1001.20 498.40,1000.00"/>
    </edge>
    <edge id=":S_0" function="internal">
        <lane id=":S_0_0" index="0" speed="3.65" length="4.67" shape="498.40,0.00 499.20,-1.20 500.00,-1.60 500.80,-1.20 501.60,0.00"/>
    </edge>
    <edge id=":W_0" function="internal">
        <lane id=":W_0_0" index="0" speed="3.65" length="4.67" shape="0.00,501.60 -1.20,500.80 -1.60,500.00 -1.20,499.20 0.00,498.40"/>
    </edge>

    <edge id="C2E" from="C" to="E" priority="78">
        <lane id="C2E_0" index="0" speed="13.89" length="489.60" shape="510.40,495.20 1000.00,495.20"/>
        <lane id="C2E_1" index="1" speed="13.89" length="489.60" shape="510.40,498.40 1000.00,498.40"/>
    </edge>
    <edge id="C2N" from="C" to="N" priority="78">
        <lane id="C2N_0" index="0" speed="13.89" length="489.60" shape="504.80,510.40 504.80,1000.00"/>
        <lane id="C2N_1" index="1" speed="13.89" length="489.60" shape="501.60,510.40 501.60,1000.00"/>
    </edge>
    <edge id="C2S" from="C" to="S" priority="78">
        <lane id="C2S_0" index="0" speed="13.89" length="489.60" shape="495.20,489.60 495.20,0.00"/>
        <lane id="C2S_1" index="1" speed="13.89" length="489.60" shape="498.40,489.60 498.40,0.00"/>
    </edge>
    <edge id="C2W" from="C" to="W" priority="78">
        <lane id="C2W_0" index="0" speed="13.89" length="489.60" shape="489.60,504.80 0.00,504.80"/>
        <lane id="C2W_1" index="1" speed="13.89" length="489.60" shape="489.60,501.60 0.00,501.60"/>
    </edge>
    <edge id="E2C" from="E" to="C" priority="78">
        <lane id="E2C_0" index="0" speed="13.89" length="489.60" shape="1000.00,504.80 510.40,504.80"/>
        <lane id="E2C_1" index="1" speed="13.89" length="489.60" shape="1000.00,501.60 510.40,501.60"/>
    </edge>
    <edge id="N2C" from="N" to="C" priority="78">
        <lane id="N2C_0" index="0" speed="13.89" length="489.60" shape="495.20,1000.00 495.20,510.40"/>
        <lane id="N2C_1" index="1" speed="13.89" length="489.60" shape="498.40,1000.00 498.40,510.40"/>
    </edge>
    <edge id="S2C" from="S" to="C" priority="78">
        <lane id="S2C_0" index="0" speed="13.89" length="489.60" shape="504.80,0.00 504.80,489.60"/>
        <lane id="S2C_1" index="1" speed="13.89" length="489.60" shape="501.60,0.00 501.60,489.60"/>
    </edge>
    <edge id="W2C" from="W" to="C" priority="78">
        <lane id="W2C_0" index="0" speed="13.89" length="489.60" shape="0.00,495.20 489.60,495.20"/>
        <lane id="W2C_1" index="1" speed="13.89" length="489.60" shape="0.00,498.40 489.60,498.40"/>
    </edge>

    <tlLogic id="C" type="actuated" programID="0" offset="0">
        <phase duration="31" state="GGgrrrGGgrrr" minDur="5" maxDur="50"/>
        <phase duration="3"  state="yygrrryygrrr"/>
        <phase duration="6"  state="rrGrrrrrGrrr" minDur="5" maxDur="50"/>
        <phase duration="3"  state="rryrrrrryrrr"/>
        <phase duration="2"  state="rrrrrrrrrrrr"/>
        <phase duration="31" state="rrrGGgrrrGGg" minDur="5" maxDur="50"/>
        <phase duration="3"  state="rrryygrrryyg"/>
        <phase duration="6"  state="rrrrrGrrrrrG" minDur="5" maxDur="50"/>
        <phase duration="3"  state="rrrrryrrrrry"/>
        <phase duration="2"  state="rrrrrrrrrrrr"/>
    </tlLogic>

    <junction id="C" type="traffic_light" x="500.00" y="500.00" incLanes="N2C_0 N2C_1 E2C_0 E2C_1 S2C_0 S2C_1 W2C_0 W2C_1" intLanes=":C_0_0 :C_1_0 :C_12_0 :C_3_0 :C_4_0 :C_13_0 :C_6_0 :C_7_0 :C_14_0 :C_9_0 :C_10_0 :C_15_0" shape="493.60,510.40 506.40,510.40 506.84,508.18 507.40,507.40 508.18,506.84 509.18,506.51 510.40,506.40 510.40,493.60 508.18,493.16 507.40,492.60 506.84,491.82 506.51,490.82 506.40,489.60 493.60,489.60 493.16,491.82 492.60,492.60 491.82,493.16 490.82,493.49 489.60,493.60 489.60,506.40 491.82,506.84 492.60,507.40 493.16,508.18 493.49,509.18">
        <request index="0"  response="000000000000" foes="000000010000" cont="0"/>
        <request index="1"  response="100000000000" foes="111100010000" cont="0"/>
        <request index="2"  response="100010100000" foes="100010110000" cont="1"/>
        <request index="3"  response="000010000000" foes="000010000000" cont="0"/>
        <request index="4"  response="000010000111" foes="100010000111" cont="0"/>
        <request index="5"  response="010110000100" foes="010110000100" cont="1"/>
        <request index="6"  response="000000000000" foes="010000000000" cont="0"/>
        <request index="7"  response="000000100000" foes="010000111100" cont="0"/>
        <request index="8"  response="100000100010" foes="110000100010" cont="1"/>
        <request index="9"  response="000000000010" foes="000000000010" cont="0"/>
        <request index="10" response="000111000010" foes="000111100010" cont="0"/>
        <request index="11" response="000100010110" foes="000100010110" cont="1"/>
    </junction>
    <junction id="E" type="priority" x="1000.00" y="500.00" incLanes="C2E_0 C2E_1" intLanes=":E_0_0" shape="1000.00,500.00 1000.00,493.60 1000.00,500.00">
        <request index="0" response="0" foes="0" cont="0"/>
    </junction>
    <junction id="N" type="priority" x="500.00" y="1000.00" incLanes="C2N_0 C2N_1" intLanes=":N_0_0" shape="500.00,1000.00 506.40,1000.00 500.00,1000.00">
        <request index="0" response="0" foes="0" cont="0"/>
    </junction>
    <junction id="S" type="priority" x="500.00" y="0.00" incLanes="C2S_0 C2S_1" intLanes=":S_0_0" shape="500.00,0.00 493.60,0.00 500.00,0.00">
        <request index="0" response="0" foes="0" cont="0"/>
    </junction>
    <junction id="W" type="priority" x="0.00" y="500.00" incLanes="C2W_0 C2W_1" intLanes=":W_0_0" shape="0.00,500.00 0.00,506.40 0.00,500.00">
        <request index="0" response="0" foes="0" cont="0"/>
    </junction>

    <junction id=":C_12_0" type="internal" x="502.04" y="501.02" incLanes=":C_2_0 S2C_0" intLanes=":C_4_0 :C_5_0 :C_6_0 :C_7_0 :C_10_0 :C_11_0"/>
    <junction id=":C_13_0" type="internal" x="501.02" y="497.96" incLanes=":C_5_0 W2C_0" intLanes=":C_1_0 :C_2_0 :C_7_0 :C_8_0 :C_9_0 :C_10_0"/>
    <junction id=":C_14_0" type="internal" x="497.96" y="498.98" incLanes=":C_8_0 N2C_0" intLanes=":C_0_0 :C_1_0 :C_4_0 :C_5_0 :C_10_0 :C_11_0"/>
    <junction id=":C_15_0" type="internal" x="498.98" y="502.04" incLanes=":C_11_0 E2C_0" intLanes=":C_1_0 :C_2_0 :C_3_0 :C_4_0 :C_7_0 :C_8_0"/>

    <connection from="C2E" to="E2C" fromLane="1" toLane="1" via=":E_0_0" dir="t" state="M"/>
    <connection from="C2N" to="N2C" fromLane="1" toLane="1" via=":N_0_0" dir="t" state="M"/>
    <connection from="C2S" to="S2C" fromLane="1" toLane="1" via=":S_0_0" dir="t" state="M"/>
    <connection from="C2W" to="W2C" fromLane="1" toLane="1" via=":W_0_0" dir="t" state="M"/>
    <connection from="E2C" to="C2N" fromLane="0" toLane="0" via=":C_3_0" tl="C" linkIndex="3" dir="r" state="o"/>
    <connection from="E2C" to="C2W" fromLane="0" toLane="0" via=":C_4_0" tl="C" linkIndex="4" dir="s" state="o"/>
    <connection from="E2C" to="C2S" fromLane="1" toLane="1" via=":C_5_0" tl="C" linkIndex="5" dir="l" state="o"/>
    <connection from="N2C" to="C2W" fromLane="0" toLane="0" via=":C_0_0" tl="C" linkIndex="0" dir="r" state="O"/>
    <connection from="N2C" to="C2S" fromLane="0" toLane="0" via=":C_1_0" tl="C" linkIndex="1" dir="s" state="O"/>
    <connection from="N2C" to="C2E" fromLane="1" toLane="1" via=":C_2_0" tl="C" linkIndex="2" dir="l" state="o"/>
    <connection from="S2C" to="C2E" fromLane="0" toLane="0" via=":C_6_0" tl="C" linkIndex="6" dir="r" state="O"/>
    <connection from="S2C" to="C2N" fromLane="0" toLane="0" via=":C_7_0" tl="C" linkIndex="7" dir="s" state="O"/>
    <connection from="S2C" to="C2W" fromLane="1" toLane="1" via=":C_8_0" tl="C" linkIndex="8" dir="l" state="o"/>
    <connection from="W2C" to="C2S" fromLane="0" toLane="0" via=":C_9_0" tl="C" linkIndex="9" dir="r" state="o"/>
    <connection from="W2C" to="C2E" fromLane="0" toLane="0" via=":C_10_0" tl="C" linkIndex="10" dir="s" state="o"/>
    <connection from="W2C" to="C2N" fromLane="1" toLane="1" via=":C_11_0" tl="C" linkIndex="11" dir="l" state="o"/>

    <connection from=":C_0" to="C2W" fromLane="0" toLane="0" dir="r" state="M"/>
    <connection from=":C_1" to="C2S" fromLane="0" toLane="0" dir="s" state="M"/>
    <connection from=":C_2" to="C2E" fromLane="0" toLane="1" via=":C_12_0" dir="l" state="m"/>
    <connection from=":C_12" to="C2E" fromLane="0" toLane="1" dir="l" state="M"/>
    <connection from=":C_3" to="C2N" fromLane="0" toLane="0" dir="r" state="M"/>
    <connection from=":C_4" to="C2W" fromLane="0" toLane="0" dir="s" state="M"/>
    <connection from=":C_5" to="C2S" fromLane="0" toLane="1" via=":C_13_0" dir="l" state="m"/>
    <connection from=":C_13" to="C2S" fromLane="0" toLane="1" dir="l" state="M"/>
    <connection from=":C_6" to="C2E" fromLane="0" toLane="0" dir="r" state="M"/>
    <connection from=":C_7" to="C2N" fromLane="0" toLane="0" dir="s" state="M"/>
    <connection from=":C_8" to="C2W" fromLane="0" toLane="1" via=":C_14_0" dir="l" state="m"/>
    <connection from=":C_14" to="C2W" fromLane="0" toLane="1" dir="l" state="M"/>
    <connection from=":C_9" to="C2S" fromLane="0" toLane="0" dir="r" state="M"/>
    <connection from=":C_10" to="C2E" fromLane="0" toLane="0" dir="s" state="M"/>
    <connection from=":C_11" to="C2N" fromLane="0" toLane="1" via=":C_15_0" dir="l" state="m"/>
    <connection from=":C_15" to="C2N" fromLane="0" toLane="1" dir="l" state="M"/>
    <connection from=":E_0" to="E2C" fromLane="0" toLane="1" dir="t" state="M"/>
    <connection from=":N_0" to="N2C" fromLane="0" toLane="1" dir="t" state="M"/>
    <connection from=":S_0" to="S2C" fromLane="0" toLane="1" dir="t" state="M"/>
    <connection from=":W_0" to="W2C" fromLane="0" toLane="1" dir="t" state="M"/>

</net>
