<?xml version="1.0" encoding="UTF-8"?>

<!-- generated on 2026-01-20T22:51:59.705828+05:30 by Eclipse SUMO netedit 1.25.0
<neteditConfiguration xmlns:xsi="http://www.w3.org/2001/XMLSchema-instance" xsi:noNamespaceSchemaLocation="http://sumo.dlr.de/xsd/neteditConfiguration.xsd">

    <input>
        <sumo-net-file value="C:\Users\Shashanka\Desktop\Reinforcement_Signal_Optimizer_EL5\Reinforcement_Signal_Optimizer\backend\app\sumo\networks\new_filtered\new_filtered_roads\new_jss_junc.net.xml"/>
    </input>

    <output>
        <output-file value="C:\Users\Shashanka\Desktop\Reinforcement_Signal_Optimizer_EL5\Reinforcement_Signal_Optimizer\backend\app\sumo\networks\new_filtered\new_filtered_roads\new_jss_junc.net.xml"/>
    </output>

    <processing>
        <offset.disable-normalization value="true"/>
    </processing>

    <junctions>
        <no-turnarounds value="true"/>
    </junctions>

    <netedit>
        <new-network value="false"/>
    </netedit>

</neteditConfiguration>
-->

<net version="1.20" junctionCornerDetail="5" limitTurnSpeed="5.50" xmlns:xsi="http://www.w3.org/2001/XMLSchema-instance" xsi:noNamespaceSchemaLocation="http://sumo.dlr.de/xsd/net_file.xsd">

    <location netOffset="0.00,0.00" convBoundary="-67.91,-91.02,195.90,50.02" origBoundary="10000000000.00,10000000000.00,-10000000000.00,-10000000000.00" projParameter="!"/>

    <edge id=":J1_0" function="internal">
        <lane id=":J1_0_0" index="0" speed="13.89" length="14.32" shape="-62.78,18.91 -63.34,4.60"/>
    </edge>
    <edge id=":J1_1" function="internal">
        <lane id=":J1_1_0" index="0" speed="8.10" length="3.96" shape="-62.78,18.91 -62.35,15.10 -62.29,14.99"/>
    </edge>
    <edge id=":J1_6" function="internal">
        <lane id=":J1_6_0" index="0" speed="8.10" length="10.24" shape="-62.29,14.99 -60.78,12.29 -58.09,10.49 -54.26,9.70"/>
    </edge>
    <edge id=":J1_2" function="internal">
        <lane id=":J1_2_0" index="0" speed="6.63" length="9.16" shape="-54.05,12.89 -56.54,13.40 -58.28,14.56 -59.30,16.36 -59.58,18.81"/>
    </edge>
    <edge id=":J1_3" function="internal">
        <lane id=":J1_3_0" index="0" speed="7.97" length="14.26" shape="-54.05,12.89 -57.96,12.59 -60.81,11.11 -62.60,8.44 -63.34,4.60"/>
    </edge>
    <edge id=":J1_4" function="internal">
        <lane id=":J1_4_0" index="0" speed="6.47" length="9.03" shape="-60.15,4.44 -59.68,6.88 -58.54,8.57 -56.74,9.51 -54.26,9.70"/>
    </edge>
    <edge id=":J1_5" function="internal">
        <lane id=":J1_5_0" index="0" speed="13.89" length="14.38" shape="-60.15,4.44 -59.58,18.81"/>
    </edge>
    <edge id=":J11_0" function="internal">
        <lane id=":J11_0_0" index="0" speed="6.54" length="9.14" shape="74.57,14.57 72.05,14.84 70.22,15.84 69.10,17.56 68.67,19.99"/>
    </edge>
    <edge id=":J11_1" function="internal">
        <lane id=":J11_1_0" index="0" speed="13.89" length="14.98" shape="74.57,14.57 70.82,14.40 67.09,14.11 63.37,13.72 59.66,13.20"/>
    </edge>
    <edge id=":J11_2" function="internal">
        <lane id=":J11_2_0" index="0" speed="7.95" length="4.21" shape="74.57,14.57 70.67,13.88 70.46,13.74"/>
    </edge>
    <edge id=":J11_12" function="internal">
        <lane id=":J11_12_0" index="0" speed="7.95" length="10.25" shape="70.46,13.74 67.98,12.09 66.49,9.19 66.22,5.19"/>
    </edge>
    <edge id=":J11_3" function="internal">
        <lane id=":J11_3_0" index="0" speed="6.45" length="9.14" shape="69.41,5.42 69.58,7.96 70.51,9.80 72.21,10.93 74.66,11.37"/>
    </edge>
    <edge id=":J11_4" function="internal">
        <lane id=":J11_4_0" index="0" speed="13.89" length="14.60" shape="69.41,5.42 68.67,19.99"/>
    </edge>
    <edge id=":J11_5" function="internal">
        <lane id=":J11_5_0" index="0" speed="7.86" length="4.02" shape="69.41,5.42 68.55,9.34"/>
    </edge>
    <edge id=":J11_13" function="internal">
        <lane id=":J11_13_0" index="0" speed="7.86" length="10.49" shape="68.55,9.34 66.64,11.95 63.68,13.24 59.66,13.20"/>
    </edge>
    <edge id=":J11_6" function="internal">
        <lane id=":J11_6_0" index="0" speed="6.34" length="9.04" shape="60.14,10.04 62.65,10.06 64.49,9.26 65.68,7.64 66.22,5.19"/>
    </edge>
    <edge id=":J11_7" function="internal">
        <lane id=":J11_7_0" index="0" speed="13.89" length="14.59" shape="60.14,10.04 63.79,10.55 67.38,10.93 70.98,11.20 74.66,11.37"/>
    </edge>
    <edge id=":J11_8" function="internal">
        <lane id=":J11_8_0" index="0" speed="8.48" length="4.10" shape="60.14,10.04 63.97,11.17 64.05,11.23"/>
    </edge>
    <edge id=":J11_14" function="internal">
        <lane id=":J11_14_0" index="0" speed="8.48" length="10.48" shape="64.05,11.23 66.66,13.20 68.23,16.14 68.67,19.99"/>
    </edge>
    <edge id=":J11_9" function="internal">
        <lane id=":J11_9_0" index="0" speed="7.08" length="9.86" shape="65.47,19.90 65.17,17.31 64.10,15.34 62.26,13.97 59.66,13.20"/>
    </edge>
    <edge id=":J11_10" function="internal">
        <lane id=":J11_10_0" index="0" speed="13.89" length="14.73" shape="65.47,19.90 66.22,5.19"/>
    </edge>
    <edge id=":J11_11" function="internal">
        <lane id=":J11_11_0" index="0" speed="8.03" length="4.21" shape="65.47,19.90 66.14,16.07 66.31,15.80"/>
    </edge>
    <edge id=":J11_15" function="internal">
        <lane id=":J11_15_0" index="0" speed="8.03" length="10.09" shape="66.31,15.80 67.90,13.37 70.74,11.80 74.66,11.37"/>
    </edge>
    <edge id=":J12_0" function="internal">
        <lane id=":J12_0_0" index="0" speed="13.89" length="0.35" shape="24.27,7.80 24.17,7.79 24.10,7.78 24.03,7.78 23.93,7.79"/>
    </edge>
    <edge id=":J12_1" function="internal">
        <lane id=":J12_1_0" index="0" speed="13.89" length="1.04" shape="23.72,4.60 24.03,4.58 24.24,4.58 24.45,4.60 24.76,4.64"/>
    </edge>
    <edge id=":J2_0" function="internal">
        <lane id=":J2_0_0" index="0" speed="13.89" length="14.09" shape="-65.75,-45.97 -66.87,-60.02"/>
    </edge>
    <edge id=":J2_1" function="internal">
        <lane id=":J2_1_0" index="0" speed="7.99" length="3.90" shape="-65.75,-45.97 -65.39,-49.85"/>
    </edge>
    <edge id=":J2_6" function="internal">
        <lane id=":J2_6_0" index="0" speed="7.99" length="10.32" shape="-65.39,-49.85 -63.86,-52.68 -61.18,-54.44 -57.35,-55.15"/>
    </edge>
    <edge id=":J2_2" function="internal">
        <lane id=":J2_2_0" index="0" speed="6.49" length="9.03" shape="-57.22,-51.96 -59.66,-51.51 -61.36,-50.38 -62.32,-48.59 -62.56,-46.12"/>
    </edge>
    <edge id=":J2_3" function="internal">
        <lane id=":J2_3_0" index="0" speed="8.19" length="14.12" shape="-57.22,-51.96 -61.09,-52.33 -63.98,-53.79 -65.91,-56.36 -66.87,-60.02"/>
    </edge>
    <edge id=":J2_4" function="internal">
        <lane id=":J2_4_0" index="0" speed="6.74" length="9.22" shape="-63.69,-60.38 -63.06,-58.00 -61.80,-56.34 -59.89,-55.39 -57.35,-55.15"/>
    </edge>
    <edge id=":J2_5" function="internal">
        <lane id=":J2_5_0" index="0" speed="13.89" length="14.30" shape="-63.69,-60.38 -62.56,-46.12"/>
    </edge>
    <edge id=":J4_0" function="internal">
        <lane id=":J4_0_0" index="0" speed="7.04" length="9.67" shape="79.29,-57.67 76.90,-57.15 75.13,-55.89 73.99,-53.91 73.46,-51.19"/>
    </edge>
    <edge id=":J4_1" function="internal">
        <lane id=":J4_1_0" index="0" speed="13.89" length="14.42" shape="79.29,-57.67 64.89,-56.96"/>
    </edge>
    <edge id=":J4_2" function="internal">
        <lane id=":J4_2_0" index="0" speed="13.89" length="14.36" shape="64.76,-60.16 79.11,-60.86"/>
    </edge>
    <edge id=":J4_3" function="internal">
        <lane id=":J4_3_0" index="0" speed="7.81" length="4.08" shape="64.76,-60.16 68.81,-59.74"/>
    </edge>
    <edge id=":J4_6" function="internal">
        <lane id=":J4_6_0" index="0" speed="7.81" length="10.56" shape="68.81,-59.74 71.62,-58.11 73.16,-55.26 73.46,-51.19"/>
    </edge>
    <edge id=":J4_4" function="internal">
        <lane id=":J4_4_0" index="0" speed="6.28" length="9.04" shape="70.26,-51.42 70.08,-53.93 69.13,-55.69 67.40,-56.70 64.89,-56.96"/>
    </edge>
    <edge id=":J4_5" function="internal">
        <lane id=":J4_5_0" index="0" speed="8.45" length="14.36" shape="70.26,-51.42 71.06,-55.37 72.79,-58.26 75.48,-60.09 79.11,-60.86"/>
    </edge>
    <edge id=":J5_0" function="internal">
        <lane id=":J5_0_0" index="0" speed="6.77" length="9.23" shape="105.18,-53.72 104.48,-56.07 103.17,-57.69 101.23,-58.60 98.69,-58.80"/>
    </edge>
    <edge id=":J5_1" function="internal">
        <lane id=":J5_1_0" index="0" speed="13.89" length="14.25" shape="105.18,-53.72 104.70,-57.32 104.31,-60.79 104.01,-64.27 103.77,-67.90"/>
    </edge>
    <edge id=":J5_2" function="internal">
        <lane id=":J5_2_0" index="0" speed="13.89" length="13.97" shape="106.96,-68.08 107.20,-64.49 107.49,-61.11 107.87,-57.74 108.35,-54.18"/>
    </edge>
    <edge id=":J5_3" function="internal">
        <lane id=":J5_3_0" index="0" speed="8.00" length="3.99" shape="106.96,-68.08 106.63,-64.21 106.58,-64.12"/>
    </edge>
    <edge id=":J5_6" function="internal">
        <lane id=":J5_6_0" index="0" speed="8.00" length="10.19" shape="106.58,-64.12 105.14,-61.37 102.49,-59.57 98.69,-58.80"/>
    </edge>
    <edge id=":J5_4" function="internal">
        <lane id=":J5_4_0" index="0" speed="6.51" length="9.02" shape="98.50,-61.99 100.92,-62.48 102.61,-63.63 103.56,-65.43 103.77,-67.90"/>
    </edge>
    <edge id=":J5_5" function="internal">
        <lane id=":J5_5_0" index="0" speed="8.23" length="14.07" shape="98.50,-61.99 102.36,-61.69 105.28,-60.29 107.28,-57.79 108.35,-54.18"/>
    </edge>
    <edge id=":J7_0" function="internal">
        <lane id=":J7_0_0" index="0" speed="6.86" length="3.44" shape="110.72,-23.51 109.98,-24.20 109.55,-24.76 109.31,-25.43 109.14,-26.43"/>
    </edge>
    <edge id=":J7_1" function="internal">
        <lane id=":J7_1_0" index="0" speed="4.31" length="1.15" shape="112.30,-26.89 112.36,-26.55 112.44,-26.33 112.58,-26.14 112.83,-25.91"/>
    </edge>
    <edge id=":J8_0" function="internal">
        <lane id=":J8_0_0" index="0" speed="9.06" length="15.50" shape="157.22,23.29 155.99,20.51 153.46,18.48 149.63,17.19 144.49,16.65"/>
    </edge>
    <edge id=":J8_1" function="internal">
        <lane id=":J8_1_0" index="0" speed="13.89" length="18.69" shape="157.22,23.29 155.72,19.31 153.02,15.10 149.79,11.20 146.68,8.12"/>
    </edge>
    <edge id=":J8_2" function="internal">
        <lane id=":J8_2_0" index="0" speed="7.77" length="2.11" shape="157.22,23.29 157.14,21.18"/>
    </edge>
    <edge id=":J8_12" function="internal">
        <lane id=":J8_12_0" index="0" speed="7.77" length="12.65" shape="157.14,21.18 157.07,19.16 158.32,16.16 160.97,14.28 165.04,13.54"/>
    </edge>
    <edge id=":J8_3" function="internal">
        <lane id=":J8_3_0" index="0" speed="6.22" length="9.05" shape="165.16,16.74 162.67,17.19 161.04,18.34 160.28,20.18 160.37,22.71"/>
    </edge>
    <edge id=":J8_4" function="internal">
        <lane id=":J8_4_0" index="0" speed="13.89" length="20.67" shape="165.16,16.74 144.49,16.65"/>
    </edge>
    <edge id=":J8_5" function="internal">
        <lane id=":J8_5_0" index="0" speed="13.89" length="4.13" shape="165.16,16.74 161.10,16.01"/>
    </edge>
    <edge id=":J8_13" function="internal">
        <lane id=":J8_13_0" index="0" speed="13.89" length="16.52" shape="161.10,16.01 160.69,15.94 155.46,13.74 150.45,10.89 146.68,8.12"/>
    </edge>
    <edge id=":J8_6" function="internal">
        <lane id=":J8_6_0" index="0" speed="13.89" length="18.32" shape="148.80,5.72 152.21,8.36 156.45,10.94 160.92,12.86 165.04,13.54"/>
    </edge>
    <edge id=":J8_7" function="internal">
        <lane id=":J8_7_0" index="0" speed="13.89" length="20.76" shape="148.80,5.72 152.06,9.08 155.65,13.61 158.71,18.45 160.37,22.71"/>
    </edge>
    <edge id=":J8_8" function="internal">
        <lane id=":J8_8_0" index="0" speed="7.51" length="7.87" shape="148.80,5.72 153.40,10.69 153.65,11.76"/>
    </edge>
    <edge id=":J8_14" function="internal">
        <lane id=":J8_14_0" index="0" speed="7.51" length="12.83" shape="153.65,11.76 154.22,14.17 151.25,16.16 144.49,16.65"/>
    </edge>
    <edge id=":J8_9" function="internal">
        <lane id=":J8_9_0" index="0" speed="5.46" length="10.09" shape="144.58,13.45 147.88,13.21 149.33,12.24 148.93,10.55 146.68,8.12"/>
    </edge>
    <edge id=":J8_10" function="internal">
        <lane id=":J8_10_0" index="0" speed="13.89" length="20.46" shape="144.58,13.45 165.04,13.54"/>
    </edge>
    <edge id=":J8_11" function="internal">
        <lane id=":J8_11_0" index="0" speed="10.19" length="6.34" shape="144.58,13.45 150.88,14.18"/>
    </edge>
    <edge id=":J8_15" function="internal">
        <lane id=":J8_15_0" index="0" speed="10.19" length="13.52" shape="150.88,14.18 155.61,15.97 158.78,18.82 160.37,22.71"/>
    </edge>

    <edge id="-E0" from="J1" to="J0" priority="-1">
        <lane id="-E0_0" index="0" speed="13.89" length="18.29" shape="-59.58,18.81 -59.00,37.09"/>
    </edge>
    <edge id="-E1" from="J2" to="J1" priority="-1">
        <lane id="-E1_0" index="0" speed="13.89" length="50.63" shape="-62.56,-46.12 -60.15,4.44"/>
    </edge>
    <edge id="-E10" from="J11" to="J8" priority="-1">
        <lane id="-E10_0" index="0" speed="13.89" length="69.95" shape="74.66,11.37 144.58,13.45"/>
    </edge>
    <edge id="-E11" from="J12" to="J11" priority="-1">
        <lane id="-E11_0" index="0" speed="13.89" length="35.79" shape="24.76,4.64 60.14,10.04"/>
    </edge>
    <edge id="-E12" from="J1" to="J12" priority="-1">
        <lane id="-E12_0" index="0" speed="13.89" length="78.15" shape="-54.26,9.70 23.72,4.60"/>
    </edge>
    <edge id="-E13" from="J4" to="J11" priority="-1">
        <lane id="-E13_0" index="0" speed="13.89" length="56.75" shape="73.46,-51.19 69.41,5.42"/>
    </edge>
    <edge id="-E14" from="J13" to="J11" priority="-1">
        <lane id="-E14_0" index="0" speed="13.89" length="28.82" shape="64.62,48.71 65.47,19.90"/>
    </edge>
    <edge id="-E2" from="J3" to="J2" priority="-1">
        <lane id="-E2_0" index="0" speed="13.89" length="23.66" shape="-66.32,-83.89 -63.69,-60.38"/>
    </edge>
    <edge id="-E3" from="J4" to="J2" priority="-1">
        <lane id="-E3_0" index="0" speed="13.89" length="122.21" shape="64.89,-56.96 -57.22,-51.96"/>
    </edge>
    <edge id="-E4" from="J5" to="J4" priority="-1">
        <lane id="-E4_0" index="0" speed="13.89" length="19.43" shape="98.69,-58.80 79.29,-57.67"/>
    </edge>
    <edge id="-E5" from="J6" to="J5" priority="-1">
        <lane id="-E5_0" index="0" speed="13.89" length="23.07" shape="105.67,-91.11 106.96,-68.08"/>
    </edge>
    <edge id="-E6" from="J7" to="J5" priority="-1">
        <lane id="-E6_0" index="0" speed="13.89" length="27.58" shape="109.14,-26.43 105.18,-53.72"/>
    </edge>
    <edge id="-E7" from="J8" to="J7" priority="-1">
        <lane id="-E7_0" index="0" speed="13.89" length="47.90" shape="146.68,8.12 110.72,-23.51"/>
    </edge>
    <edge id="-E8" from="J9" to="J8" priority="-1">
        <lane id="-E8_0" index="0" speed="13.89" length="30.82" shape="195.96,15.57 165.16,16.74"/>
    </edge>
    <edge id="-E9" from="J10" to="J8" priority="-1">
        <lane id="-E9_0" index="0" speed="13.89" length="27.47" shape="162.18,50.31 157.22,23.29"/>
    </edge>
    <edge id="E0" from="J0" to="J1" priority="-1">
        <lane id="E0_0" index="0" speed="13.89" length="18.29" shape="-62.20,37.19 -62.78,18.91"/>
    </edge>
    <edge id="E1" from="J1" to="J2" priority="-1">
        <lane id="E1_0" index="0" speed="13.89" length="50.63" shape="-63.34,4.60 -65.75,-45.97"/>
    </edge>
    <edge id="E10" from="J8" to="J11" priority="-1">
        <lane id="E10_0" index="0" speed="13.89" length="69.95" shape="144.49,16.65 74.57,14.57"/>
    </edge>
    <edge id="E11" from="J11" to="J12" priority="-1">
        <lane id="E11_0" index="0" speed="13.89" length="35.79" shape="59.66,13.20 24.27,7.80"/>
    </edge>
    <edge id="E12" from="J12" to="J1" priority="-1">
        <lane id="E12_0" index="0" speed="13.89" length="78.15" shape="23.93,7.79 -54.05,12.89"/>
    </edge>
    <edge id="E13" from="J11" to="J4" priority="-1">
        <lane id="E13_0" index="0" speed="13.89" length="56.75" shape="66.22,5.19 70.26,-51.42"/>
    </edge>
    <edge id="E14" from="J11" to="J13" priority="-1">
        <lane id="E14_0" index="0" speed="13.89" length="28.82" shape="68.67,19.99 67.82,48.81"/>
    </edge>
    <edge id="E2" from="J2" to="J3" priority="-1">
        <lane id="E2_0" index="0" speed="13.89" length="23.66" shape="-66.87,-60.02 -69.50,-83.53"/>
    </edge>
    <edge id="E3" from="J2" to="J4" priority="-1">
        <lane id="E3_0" index="0" speed="13.89" length="122.21" shape="-57.35,-55.15 64.76,-60.16"/>
    </edge>
    <edge id="E4" from="J4" to="J5" priority="-1">
        <lane id="E4_0" index="0" speed="13.89" length="19.43" shape="79.11,-60.86 98.50,-61.99"/>
    </edge>
    <edge id="E5" from="J5" to="J6" priority="-1">
        <lane id="E5_0" index="0" speed="13.89" length="23.07" shape="103.77,-67.90 102.47,-90.93"/>
    </edge>
    <edge id="E6" from="J5" to="J7" priority="-1">
        <lane id="E6_0" index="0" speed="13.89" length="27.58" shape="108.35,-54.18 112.30,-26.89"/>
    </edge>
    <edge id="E7" from="J7" to="J8" priority="-1">
        <lane id="E7_0" index="0" speed="13.89" length="47.90" shape="112.83,-25.91 148.80,5.72"/>
    </edge>
    <edge id="E8" from="J8" to="J9" priority="-1">
        <lane id="E8_0" index="0" speed="13.89" length="30.82" shape="165.04,13.54 195.84,12.37"/>
    </edge>
    <edge id="E9" from="J8" to="J10" priority="-1">
        <lane id="E9_0" index="0" speed="13.89" length="27.47" shape="160.37,22.71 165.32,49.73"/>
    </edge>

    <tlLogic id="J1" type="static" programID="0" offset="0">
        <phase duration="42" state="GgrrGG"/>
        <phase duration="3"  state="yyrrGy"/>
        <phase duration="42" state="rrGGGr"/>
        <phase duration="3"  state="rryyGr"/>
    </tlLogic>
    <tlLogic id="J11" type="static" programID="0" offset="0">
        <phase duration="42" state="rrrGGgrrrGGg"/>
        <phase duration="3"  state="rrryyyrrryyy"/>
        <phase duration="42" state="GGgrrrGGgrrr"/>
        <phase duration="3"  state="yyyrrryyyrrr"/>
    </tlLogic>
    <tlLogic id="J2" type="static" programID="0" offset="0">
        <phase duration="42" state="GgrrGG"/>
        <phase duration="3"  state="yyrrGy"/>
        <phase duration="42" state="rrGGGr"/>
        <phase duration="3"  state="rryyGr"/>
    </tlLogic>
    <tlLogic id="J4" type="static" programID="0" offset="0">
        <phase duration="42" state="GGGgrr"/>
        <phase duration="3"  state="Gyyyrr"/>
        <phase duration="42" state="GrrrGG"/>
        <phase duration="3"  state="Grrryy"/>
    </tlLogic>
    <tlLogic id="J5" type="static" programID="0" offset="0">
        <phase duration="42" state="GGGgrr"/>
        <phase duration="3"  state="Gyyyrr"/>
        <phase duration="42" state="GrrrGG"/>
        <phase duration="3"  state="Grrryy"/>
    </tlLogic>
    <tlLogic id="J8" type="static" programID="0" offset="0">
        <phase duration="42" state="rrrGGgrrrGGg"/>
        <phase duration="3"  state="rrryyyrrryyy"/>
        <phase duration="42" state="GGgrrrGGgrrr"/>
        <phase duration="3"  state="yyyrrryyyrrr"/>
    </tlLogic>

    <junction id="J0" type="dead_end" x="-60.60" y="37.14" incLanes="-E0_0" intLanes="" shape="-60.60,37.14 -57.40,37.04 -60.60,37.14" fringe="outer"/>
    <junction id="J1" type="traffic_light" x="-61.40" y="11.77" incLanes="E0_0 E12_0 -E1_0" intLanes=":J1_0_0 :J1_6_0 :J1_2_0 :J1_3_0 :J1_4_0 :J1_5_0" shape="-64.37,18.96 -57.98,18.76 -57.59,16.51 -57.03,15.69 -56.24,15.08 -55.22,14.68 -53.95,14.49 -54.37,8.10 -56.61,7.80 -57.41,7.30 -58.00,6.56 -58.38,5.58 -58.55,4.37 -64.94,4.67">
        <request index="0" response="000000" foes="001000" cont="0"/>
        <request index="1" response="110000" foes="111000" cont="1"/>
        <request index="2" response="100000" foes="100000" cont="0"/>
        <request index="3" response="100011" foes="100011" cont="0"/>
        <request index="4" response="000000" foes="000010" cont="0"/>
        <request index="5" response="000000" foes="001110" cont="0"/>
    </junction>
    <junction id="J10" type="dead_end" x="163.75" y="50.02" incLanes="E9_0" intLanes="" shape="163.75,50.02 166.90,49.44 163.75,50.02" fringe="outer"/>
    <junction id="J11" type="traffic_light" x="67.28" y="12.75" incLanes="E10_0 -E13_0 -E11_0 -E14_0" intLanes=":J11_0_0 :J11_1_0 :J11_12_0 :J11_3_0 :J11_4_0 :J11_13_0 :J11_6_0 :J11_7_0 :J11_14_0 :J11_9_0 :J11_10_0 :J11_15_0" shape="74.52,16.17 74.71,9.77 72.52,9.25 71.78,8.65 71.28,7.83 71.03,6.79 71.00,5.53 64.62,5.07 64.02,7.22 63.42,7.92 62.61,8.35 61.60,8.53 60.38,8.46 59.42,14.79 61.95,15.66 62.82,16.40 63.43,17.35 63.78,18.50 63.87,19.85 70.27,20.04 70.79,17.83 71.39,17.07 72.21,16.54 73.25,16.24">
        <request index="0"  response="000000010000" foes="000100010000" cont="0"/>
        <request index="1"  response="111000110000" foes="111100110000" cont="0"/>
        <request index="2"  response="110011110000" foes="110111110000" cont="1"/>
        <request index="3"  response="000000000000" foes="100010000000" cont="0"/>
        <request index="4"  response="000100000100" foes="100110000111" cont="0"/>
        <request index="5"  response="111100000100" foes="111110000110" cont="1"/>
        <request index="6"  response="010000000000" foes="010000000100" cont="0"/>
        <request index="7"  response="110000111000" foes="110000111100" cont="0"/>
        <request index="8"  response="110000110111" foes="110000110111" cont="1"/>
        <request index="9"  response="000000000000" foes="000000100010" cont="0"/>
        <request index="10" response="000100000100" foes="000111100110" cont="0"/>
        <request index="11" response="000100011100" foes="000110111110" cont="1"/>
    </junction>
    <junction id="J12" type="priority" x="24.17" y="6.17" incLanes="E11_0 -E12_0" intLanes=":J12_0_0 :J12_1_0" shape="24.03,9.39 25.00,3.06 24.49,2.99 24.31,2.97 24.13,2.97 23.91,2.98 23.61,3.00">
        <request index="0" response="00" foes="00" cont="0"/>
        <request index="1" response="00" foes="00" cont="0"/>
    </junction>
    <junction id="J13" type="dead_end" x="66.22" y="48.76" incLanes="E14_0" intLanes="" shape="66.22,48.76 69.42,48.85 66.22,48.76" fringe="outer"/>
    <junction id="J2" type="traffic_light" x="-64.50" y="-53.26" incLanes="E1_0 -E3_0 -E2_0" intLanes=":J2_0_0 :J2_6_0 :J2_2_0 :J2_3_0 :J2_4_0 :J2_5_0" shape="-67.35,-45.89 -60.96,-46.20 -60.62,-48.44 -60.10,-49.24 -59.35,-49.82 -58.37,-50.20 -57.15,-50.36 -57.42,-56.75 -59.82,-57.10 -60.70,-57.62 -61.38,-58.37 -61.84,-59.34 -62.10,-60.55 -68.46,-59.84">
        <request index="0" response="000000" foes="001000" cont="0"/>
        <request index="1" response="110000" foes="111000" cont="1"/>
        <request index="2" response="100000" foes="100000" cont="0"/>
        <request index="3" response="100011" foes="100011" cont="0"/>
        <request index="4" response="000000" foes="000010" cont="0"/>
        <request index="5" response="000000" foes="001110" cont="0"/>
    </junction>
    <junction id="J3" type="dead_end" x="-67.91" y="-83.71" incLanes="E2_0" intLanes="" shape="-67.91,-83.71 -71.09,-83.35 -67.91,-83.71" fringe="outer"/>
    <junction id="J4" type="traffic_light" x="72.40" y="-58.87" incLanes="-E4_0 E3_0 E13_0" intLanes=":J4_0_0 :J4_1_0 :J4_2_0 :J4_6_0 :J4_4_0 :J4_5_0" shape="79.38,-56.07 79.01,-62.46 64.69,-61.76 64.96,-55.36 67.14,-55.01 67.88,-54.49 68.38,-53.73 68.64,-52.75 68.67,-51.54 75.05,-51.08 75.68,-53.75 76.30,-54.71 77.13,-55.41 78.16,-55.87">
        <request index="0" response="000000" foes="001000" cont="0"/>
        <request index="1" response="000000" foes="111000" cont="0"/>
        <request index="2" response="000000" foes="100000" cont="0"/>
        <request index="3" response="000011" foes="100011" cont="1"/>
        <request index="4" response="000010" foes="000010" cont="0"/>
        <request index="5" response="001110" foes="001110" cont="0"/>
    </junction>
    <junction id="J5" type="traffic_light" x="105.77" y="-60.81" incLanes="-E6_0 -E5_0 E4_0" intLanes=":J5_0_0 :J5_1_0 :J5_2_0 :J5_6_0 :J5_4_0 :J5_5_0" shape="103.60,-53.49 109.93,-54.41 109.51,-57.33 109.22,-59.48 109.02,-61.27 108.87,-63.05 108.73,-65.23 108.56,-68.17 102.17,-67.81 101.85,-65.57 101.34,-64.76 100.60,-64.16 99.62,-63.77 98.41,-63.59 98.78,-57.20 101.20,-56.90 102.11,-56.40 102.81,-55.66 103.30,-54.69">
        <request index="0" response="000000" foes="001000" cont="0"/>
        <request index="1" response="000000" foes="111000" cont="0"/>
        <request index="2" response="000000" foes="100000" cont="0"/>
        <request index="3" response="000011" foes="100011" cont="1"/>
        <request index="4" response="000010" foes="000010" cont="0"/>
        <request index="5" response="001110" foes="001110" cont="0"/>
    </junction>
    <junction id="J6" type="dead_end" x="104.07" y="-91.02" incLanes="E5_0" intLanes="" shape="104.07,-91.02 100.88,-90.84 104.07,-91.02" fringe="outer"/>
    <junction id="J7" type="priority" x="110.89" y="-25.49" incLanes="-E7_0 E6_0" intLanes=":J7_0_0 :J7_1_0" shape="109.66,-22.31 113.89,-27.11 107.55,-26.20 107.87,-24.54 108.10,-23.98 108.45,-23.48 108.95,-22.95">
        <request index="0" response="00" foes="00" cont="0"/>
        <request index="1" response="00" foes="00" cont="0"/>
    </junction>
    <junction id="J8" type="traffic_light" x="157.41" y="15.43" incLanes="-E9_0 -E8_0 E7_0 -E10_0" intLanes=":J8_0_0 :J8_1_0 :J8_12_0 :J8_3_0 :J8_4_0 :J8_13_0 :J8_6_0 :J8_7_0 :J8_14_0 :J8_9_0 :J8_10_0 :J8_15_0" shape="155.65,23.58 161.94,22.42 161.99,20.22 162.40,19.43 163.08,18.86 164.02,18.49 165.22,18.34 164.98,11.94 161.37,11.89 158.72,11.40 156.63,10.44 154.71,8.99 152.58,7.02 149.85,4.52 145.63,9.33 146.85,10.78 146.88,11.28 146.52,11.62 145.77,11.81 144.63,11.85 144.44,18.25 147.61,18.48 150.26,18.97 152.39,19.73 153.99,20.75 155.08,22.03">
        <request index="0"  response="000000010000" foes="000100010000" cont="0"/>
        <request index="1"  response="111000110000" foes="111100110000" cont="0"/>
        <request index="2"  response="110011110000" foes="110011110000" cont="1"/>
        <request index="3"  response="000000000000" foes="100010000000" cont="0"/>
        <request index="4"  response="000100000100" foes="100110000111" cont="0"/>
        <request index="5"  response="011100000100" foes="111110000110" cont="1"/>
        <request index="6"  response="010000000000" foes="010000000100" cont="0"/>
        <request index="7"  response="110000111000" foes="110000111100" cont="0"/>
        <request index="8"  response="110000110011" foes="110000110011" cont="1"/>
        <request index="9"  response="000000000000" foes="000000100010" cont="0"/>
        <request index="10" response="000100000100" foes="000111100110" cont="0"/>
        <request index="11" response="000100111100" foes="000110111110" cont="1"/>
    </junction>
    <junction id="J9" type="dead_end" x="195.90" y="13.97" incLanes="E8_0" intLanes="" shape="195.90,13.97 195.78,10.77 195.90,13.97" fringe="outer"/>

    <junction id=":J1_6_0" type="internal" x="-62.29" y="14.99" incLanes=":J1_1_0 -E1_0" intLanes=":J1_3_0 :J1_4_0 :J1_5_0"/>
    <junction id=":J11_12_0" type="internal" x="70.46" y="13.74" incLanes=":J11_2_0 -E11_0" intLanes=":J11_4_0 :J11_5_0 :J11_6_0 :J11_7_0 :J11_10_0 :J11_11_0"/>
    <junction id=":J11_13_0" type="internal" x="68.55" y="9.34" incLanes=":J11_5_0 -E14_0" intLanes=":J11_1_0 :J11_2_0 :J11_7_0 :J11_8_0 :J11_9_0 :J11_10_0"/>
    <junction id=":J11_14_0" type="internal" x="64.05" y="11.23" incLanes=":J11_8_0 E10_0" intLanes=":J11_0_0 :J11_1_0 :J11_4_0 :J11_5_0 :J11_10_0 :J11_11_0"/>
    <junction id=":J11_15_0" type="internal" x="66.31" y="15.80" incLanes=":J11_11_0 -E13_0" intLanes=":J11_1_0 :J11_2_0 :J11_3_0 :J11_4_0 :J11_7_0 :J11_8_0"/>
    <junction id=":J2_6_0" type="internal" x="-65.39" y="-49.85" incLanes=":J2_1_0 -E2_0" intLanes=":J2_3_0 :J2_4_0 :J2_5_0"/>
    <junction id=":J4_6_0" type="internal" x="68.81" y="-59.74" incLanes=":J4_3_0 -E4_0" intLanes=":J4_0_0 :J4_1_0 :J4_5_0"/>
    <junction id=":J5_6_0" type="internal" x="106.58" y="-64.12" incLanes=":J5_3_0 -E6_0" intLanes=":J5_0_0 :J5_1_0 :J5_5_0"/>
    <junction id=":J8_12_0" type="internal" x="157.14" y="21.18" incLanes=":J8_2_0 E7_0" intLanes=":J8_4_0 :J8_5_0 :J8_6_0 :J8_7_0 :J8_10_0 :J8_11_0"/>
    <junction id=":J8_13_0" type="internal" x="161.10" y="16.01" incLanes=":J8_5_0 -E10_0" intLanes=":J8_1_0 :J8_2_0 :J8_7_0 :J8_8_0 :J8_9_0 :J8_10_0"/>
    <junction id=":J8_14_0" type="internal" x="153.65" y="11.76" incLanes=":J8_8_0 -E9_0" intLanes=":J8_0_0 :J8_1_0 :J8_4_0 :J8_5_0 :J8_10_0 :J8_11_0"/>
    <junction id=":J8_15_0" type="internal" x="150.88" y="14.18" incLanes=":J8_11_0 -E8_0" intLanes=":J8_1_0 :J8_2_0 :J8_3_0 :J8_4_0 :J8_7_0 :J8_8_0"/>

    <connection from="-E1" to="-E12" fromLane="0" toLane="0" via=":J1_4_0" tl="J1" linkIndex="4" dir="r" state="O"/>
    <connection from="-E1" to="-E0" fromLane="0" toLane="0" via=":J1_5_0" tl="J1" linkIndex="5" dir="s" state="O"/>
    <connection from="-E10" to="-E7" fromLane="0" toLane="0" via=":J8_9_0" tl="J8" linkIndex="9" dir="r" state="O"/>
    <connection from="-E10" to="E8" fromLane="0" toLane="0" via=":J8_10_0" tl="J8" linkIndex="10" dir="s" state="O"/>
    <connection from="-E10" to="E9" fromLane="0" toLane="0" via=":J8_11_0" tl="J8" linkIndex="11" dir="l" state="o"/>
    <connection from="-E11" to="E13" fromLane="0" toLane="0" via=":J11_6_0" tl="J11" linkIndex="6" dir="r" state="o"/>
    <connection from="-E11" to="-E10" fromLane="0" toLane="0" via=":J11_7_0" tl="J11" linkIndex="7" dir="s" state="o"/>