<?xml version="1.0" encoding="UTF-8"?>

<!-- generated on 2026-01-20 23:50:50.432383 by randomTrips.py v1_18_0+0000-03ecfdea036
<configuration>
    <net-file value="C:\Users\91948\OneDrive\Desktop\latest\backend\sumo\networks\bangalore_jss\bangalore_jss_junc.net.xml"/>
    <output-trip-file value="C:\Users\91948\OneDrive\Desktop\latest\backend\sumo\networks\bangalore_jss\trips.trips.xml"/>
    <route-file value="C:\Users\91948\OneDrive\Desktop\latest\backend\sumo\networks\bangalore_jss\routes.rou.xml"/>
    <vehicle-class value="passenger"/>
    <fringe-factor value="5"/>
    <period value="2.0"/>
</configuration>
-->

<!-- generated on 2026-01-20 23:50:50 by Eclipse SUMO duarouter Version 1.18.0
<configuration xmlns:xsi="http://www.w3.org/2001/XMLSchema-instance" xsi:noNamespaceSchemaLocation="http://sumo.dlr.de/xsd/duarouterConfiguration.xsd">

    <input>
        <net-file value="C:\Users\91948\OneDrive\Desktop\latest\backend\sumo\networks\bangalore_jss\bangalore_jss_junc.net.xml"/>
        <route-files value="C:\Users\91948\OneDrive\Desktop\latest\backend\sumo\networks\bangalore_jss\trips.trips.xml"/>
    </input>

    <output>
        <output-file value="C:\Users\91948\OneDrive\Desktop\latest\backend\sumo\networks\bangalore_jss\routes.rou.xml"/>
        <alternatives-output value="NUL"/>
    </output>

    <time>
        <begin value="0"/>
        <end value="3600.0"/>
    </time>

    <report>
        <no-warnings value="true"/>
        <ignore-errors value="true"/>
        <no-step-log value="true"/>
    </report>

</configuration>
-->

<routes xmlns:xsi="http://www.w3.org/2001/XMLSchema-instance" xsi:noNamespaceSchemaLocation="http://sumo.dlr.de/xsd/routes_file.xsd">
    <vType id="passenger" vClass="passenger"/>
    <vehicle id="0" type="passenger" depart="0.00">
        <route edges="-E9 E10 E11 E12 -E0"/>
    </vehicle>
    <vehicle id="1" type="passenger" depart="2.00">
        <route edges="-E2 -E1 -E12 -E11 E13 -E3"/>
    </vehicle>
    <vehicle id="2" type="passenger" depart="4.00">
        <route edges="E0 E1 E3 E4 E5"/>
    </vehicle>
    <vehicle id="3" type="passenger" depart="6.00">
        <route edges="E12 -E0"/>
    </vehicle>
    <vehicle id="4" type="passenger" depart="8.00">
        <route edges="-E5 -E4 -E3 -E1 -E0"/>
    </vehicle>
    <vehicle id="5" type="passenger" depart="10.00">
        <route edges="-E2 -E1 -E12 -E11 E13 -E3 E2"/>
    </vehicle>
    <vehicle id="6" type="passenger" depart="12.00">
        <route edges="-E10 -E7 -E6 -E4 -E13"/>
    </vehicle>
    <vehicle id="7" type="passenger" depart="14.00">
        <route edges="-E9 -E7 -E6 -E4 -E3 E2"/>
    </vehicle>
    <vehicle id="8" type="passenger" depart="16.00">
        <route edges="-E2 -E1 -E12 -E11 E13 -E3 E2"/>
    </vehicle>
    <vehicle id="9" type="passenger" depart="18.00">
        <route edges="E0 -E12 -E11 E13 -E3 -E1 -E0"/>
    </vehicle>
    <vehicle id="10" type="passenger" depart="20.00">
        <route edges="E0 E1 E3 E4 E5"/>
    </vehicle>
    <vehicle id="11" type="passenger" depart="22.00">
        <route edges="-E4 -E3 -E1 -E12 -E11"/>
    </vehicle>
    <vehicle id="12" type="passenger" depart="24.00">
        <route edges="E4 E6 E7 E10 E11"/>
    </vehicle>
    <vehicle id="13" type="passenger" depart="26.00">
        <route edges="-E13 E11 E12 -E0"/>
    </vehicle>
    <vehicle id="14" type="passenger" depart="28.00">
        <route edges="E10 E11 E12 E1 E2"/>
    </vehicle>
    <vehicle id="15" type="passenger" depart="30.00">
        <route edges="E0 E1 E3 E4 E5"/>
    </vehicle>
    <vehicle id="16" type="passenger" depart="32.00">
        <route edges="-E8 E9"/>
    </vehicle>
    <vehicle id="17" type="passenger" depart="34.00">
        <route edges="-E5 -E4 -E3 E2"/>
    </vehicle>
    <vehicle id="18" type="passenger" depart="36.00">
        <route edges="E1 E3"/>
    </vehicle>
    <vehicle id="19" type="passenger" depart="38.00">
        <route edges="E11 E12 E1 E2"/>
    </vehicle>
    <vehicle id="20" type="passenger" depart="40.00">
        <route edges="-E9 E10 E11 E12 -E0"/>
    </vehicle>
    <vehicle id="21" type="passenger" depart="42.00">
        <route edges="-E2 -E1 -E12 -E11 -E10 -E7"/>
    </vehicle>
    <vehicle id="22" type="passenger" depart="44.00">
        <route edges="-E12 -E11 -E10 -E7 -E6 -E4"/>
    </vehicle>
    <vehicle id="23" type="passenger" depart="46.00">
        <route edges="-E13 -E10 -E7"/>
    </vehicle>
    <vehicle id="24" type="passenger" depart="48.00">
        <route edges="-E9 E10 E11 E12"/>
    </vehicle>
    <vehicle id="25" type="passenger" depart="50.00">
        <route edges="-E5 -E4 -E3"/>
    </vehicle>
    <vehicle id="26" type="passenger" depart="52.00">
        <route edges="-E2 E3 E4 E6 E7 E9"/>
    </vehicle>
    <vehicle id="27" type="passenger" depart="54.00">
        <route edges="-E9 E10 E11 E12 E1 E3"/>
    </vehicle>
    <vehicle id="28" type="passenger" depart="56.00">
        <route edges="-E14 E13 E4 E5"/>
    </vehicle>
    <vehicle id="29" type="passenger" depart="58.00">
        <route edges="-E14 E13"/>
    </vehicle>
    <vehicle id="30" type="passenger" depart="60.00">
        <route edges="E7 E10 E13 E4"/>
    </vehicle>
    <vehicle id="31" type="passenger" depart="62.00">
        <route edges="-E8 -E7 -E6 E5"/>
    </vehicle>
    <vehicle id="32" type="passenger" depart="64.00">
        <route edges="E10 E13 E4 E6 E7"/>
    </vehicle>
    <vehicle id="33" type="passenger" depart="66.00">
        <route edges="-E2 -E1 -E0"/>
    </vehicle>
    <vehicle id="34" type="passenger" depart="68.00">
        <route edges="-E3 -E1 -E12 -E11 -E10 -E7 -E6"/>
    </vehicle>
    <vehicle id="35" type="passenger" depart="70.00">
        <route edges="-E2 E3 E4 E6 E7 E9"/>
    </vehicle>
    <vehicle id="36" type="passenger" depart="72.00">
        <route edges="E12 E1 E3 E4 E6 E7 E10"/>
    </vehicle>
    <vehicle id="37" type="passenger" depart="74.00">
        <route edges="-E9 E10 E13"/>
    </vehicle>
    <vehicle id="38" type="passenger" depart="76.00">
        <route edges="E13 E4 E6 E7 E10 E14"/>
    </vehicle>
    <vehicle id="39" type="passenger" depart="78.00">
        <route edges="-E2 -E1 -E12 -E11 -E10 -E7 -E6 -E4"/>
    </vehicle>
    <vehicle id="40" type="passenger" depart="80.00">
        <route edges="-E8 -E7 -E6"/>
    </vehicle>
    <vehicle id="41" type="passenger" depart="82.00">
        <route edges="-E8 E9"/>
    </vehicle>
    <vehicle id="42" type="passenger" depart="84.00">
        <route edges="-E5 -E4 -E3"/>
    </vehicle>
    <vehicle id="43" type="passenger" depart="86.00">
        <route edges="E7 E10 E11 E12 E1 E2"/>
    </vehicle>
    <vehicle id="44" type="passenger" depart="88.00">
        <route edges="-E13 E11 E12 -E0"/>
    </vehicle>
    <vehicle id="45" type="passenger" depart="90.00">
        <route edges="-E14 E13 E4"/>
    </vehicle>
    <vehicle id="46" type="passenger" depart="92.00">
        <route edges="E0 -E12 -E11 E14"/>
    </vehicle>
    <vehicle id="47" type="passenger" depart="94.00">
        <route edges="-E12 -E11 E13"/>
    </vehicle>
    <vehicle id="48" type="passenger" depart="96.00">
        <route edges="E7 E10 E11 E12 E1 E2"/>
    </vehicle>
    <vehicle id="49" type="passenger" depart="98.00">
        <route edges="E6 E7 E8"/>
    </vehicle>
    <vehicle id="50" type="passenger" depart="100.00">
        <route edges="-E1 -E12 -E11 E13 E4 E5"/>
    </vehicle>
    <vehicle id="51" type="passenger" depart="102.00">
        <route edges="-E9 -E7 -E6 -E4 -E3 E2"/>
    </vehicle>
    <vehicle id="52" type="passenger" depart="104.00">
        <route edges="-E2 E3 E4"/>
    </vehicle>
    <vehicle id="53" type="passenger" depart="106.00">
        <route edges="-E14 -E10 -E7 -E6 -E4 -E13 E14"/>
    </vehicle>
    <vehicle id="54" type="passenger" depart="108.00">
        <route edges="-E5 E6 E7 E9"/>
    </vehicle>
    <vehicle id="55" type="passenger" depart="110.00">
        <route edges="E12 E1 E3 -E13 -E10 -E7 -E6"/>
    </vehicle>
    <vehicle id="56" type="passenger" depart="112.00">
        <route edges="-E8 -E7 -E6 -E4 -E3 -E1 -E12"/>
    </vehicle>
    <vehicle id="57" type="passenger" depart="114.00">
        <route edges="E13 E4 E6 E7 E8"/>
    </vehicle>
    <vehicle id="58" type="passenger" depart="116.00">
        <route edges="-E2 E3 E4"/>
    </vehicle>
    <vehicle id="59" type="passenger" depart="118.00">
        <route edges="-E9 -E7 -E6 -E4 -E3 -E1 -E12 -E11"/>
    </vehicle>
    <vehicle id="60" type="passenger" depart="120.00">
        <route edges="E0 E1 E2"/>
    </vehicle>
    <vehicle id="61" type="passenger" depart="122.00">
        <route edges="E0 E1 E2"/>
    </vehicle>
    <vehicle id="62" type="passenger" depart="124.00">
        <route edges="-E1 -E12 -E11 E13 E4 E6 E7 E10"/>
    </vehicle>
    <vehicle id="63" type="passenger" depart="126.00">
        <route edges="-E1 -E12 -E11 -E10 E9"/>
    </vehicle>
    <vehicle id="64" type="passenger" depart="128.00">
        <route edges="E12 E1 E3 E4 E6 E7 E8"/>
    </vehicle>
    <vehicle id="65" type="passenger" depart="130.00">
        <route edges="-E2 -E1 -E0"/>
    </vehicle>
    <vehicle id="66" type="passenger" depart="132.00">
        <route edges="E12 E1 E3 E4 E6 E7 E9"/>
    </vehicle>
    <vehicle id="67" type="passenger" depart="134.00">
        <route edges="-E13 E14"/>
    </vehicle>
    <vehicle id="68" type="passenger" depart="136.00">
        <route edges="-E12 -E11 E13 E4 E6"/>
    </vehicle>
    <vehicle id="69" type="passenger" depart="138.00">
        <route edges="E0 -E12 -E11 -E10"/>
    </vehicle>
    <vehicle id="70" type="passenger" depart="140.00">
        <route edges="-E6 -E4 -E3 E2"/>
    </vehicle>
    <vehicle id="71" type="passenger" depart="142.00">
        <route edges="-E2 E3 E4 E6 E7 E8"/>
    </vehicle>
    <vehicle id="72" type="passenger" depart="144.00">
        <route edges="-E5 -E4 -E3"/>
    </vehicle>
    <vehicle id="73" type="passenger" depart="146.00">
        <route edges="-E8 -E7 -E6 E5"/>
    </vehicle>
    <vehicle id="74" type="passenger" depart="148.00">
        <route edges="-E14 E11 E12 E1"/>
    </vehicle>
    <vehicle id="75" type="passenger" depart="150.00">
        <route edges="E7 E10 E13 E4 E5"/>
    </vehicle>
    <vehicle id="76" type="passenger" depart="152.00">
        <route edges="-E5 -E4 -E3 E2"/>
    </vehicle>
    <vehicle id="77" type="passenger" depart="154.00">
        <route edges="-E14 E13 -E3"/>
    </vehicle>
    <vehicle id="78" type="passenger" depart="156.00">
        <route edges="-E4 -E3 E2"/>
    </vehicle>
    <vehicle id="79" type="passenger" depart="158.00">
        <route edges="-E2 -E1 -E12 -E11 E13 -E3"/>
    </vehicle>
    <vehicle id="80" type="passenger" depart="160.00">
        <route edges="-E12 -E11 E13 E4"/>
    </vehicle>
    <vehicle id="81" type="passenger" depart="162.00">
        <route edges="-E2 E3 E4 E6 E7 E9"/>
    </vehicle>
    <vehicle id="82" type="passenger" depart="164.00">
        <route edges="E11 E12 -E0"/>
    </vehicle>
    <vehicle id="83" type="passenger" depart="166.00">
        <route edges="-E2 E3 E4 E5"/>
    </vehicle>
    <vehicle id="84" type="passenger" depart="168.00">
        <route edges="-E2 -E1 -E12 -E11 -E10"/>
    </vehicle>
    <vehicle id="85" type="passenger" depart="170.00">
        <route edges="E3 -E13 E11 E12 E1 E2"/>
    </vehicle>
    <vehicle id="86" type="passenger" depart="172.00">
        <route edges="-E6 -E4 -E3 -E1 -E12 -E11 E13 E4 E6 E7"/>
    </vehicle>
    <vehicle id="87" type="passenger" depart="174.00">
        <route edges="E0 E1 E3 -E13"/>
    </vehicle>
    <vehicle id="88" type="passenger" depart="176.00">
        <route edges="-E13 E14"/>
    </vehicle>
    <vehicle id="89" type="passenger" depart="178.00">
        <route edges="-E5 -E4 -E13 E14"/>
    </vehicle>
    <vehicle id="90" type="passenger" depart="180.00">
        <route edges="E0 E1 E3 E4 E5"/>
    </vehicle>
    <vehicle id="91" type="passenger" depart="182.00">
        <route edges="E7 E10 E11 E12 -E0"/>
    </vehicle>
    <vehicle id="92" type="passenger" depart="184.00">
        <route edges="-E5 -E4 -E13 E11"/>
    </vehicle>
    <vehicle id="93" type="passenger" depart="186.00">
        <route edges="E11 E12 E1 E3 -E13 -E10 -E7 -E6 -E4"/>
    </vehicle>
    <vehicle id="94" type="passenger" depart="188.00">
        <route edges="-E14 -E10 -E7 -E6 -E4 -E13 E14"/>
    </vehicle>
    <vehicle id="95" type="passenger" depart="190.00">
        <route edges="-E5 -E4 -E13 -E10 -E7"/>
    </vehicle>
    <vehicle id="96" type="passenger" depart="192.00">
        <route edges="-E2 E3 E4 E6 E7 E9"/>
    </vehicle>
    <vehicle id="97" type="passenger" depart="194.00">
        <route edges="-E5 E6 E7 E8"/>
    </vehicle>
    <vehicle id="98" type="passenger" depart="196.00">
        <route edges="-E8 E10 E11 E12 -E0"/>
    </vehicle>
    <vehicle id="99" type="passenger" depart="198.00">
        <route edges="E7 E8"/>
    </vehicle>
    <vehicle id="100" type="passenger" depart="200.00">
        <route edges="E6 E7 E9"/>
    </vehicle>
    <vehicle id="101" type="passenger" depart="202.00">
        <route edges="E10 E13 -E3 -E1 -E12 -E11"/>
    </vehicle>
    <vehicle id="102" type="passenger" depart="204.00">
        <route edges="-E7 -E6 -E4 -E3"/>
    </vehicle>
    <vehicle id="103" type="passenger" depart="206.00">
        <route edges="-E5 -E4 -E3 -E1 -E0"/>
    </vehicle>
    <vehicle id="104" type="passenger" depart="208.00">
        <route edges="-E5 E6 E7 E9"/>
    </vehicle>
    <vehicle id="105" type="passenger" depart="210.00">
        <route edges="-E2 E3 E4 E6 E7"/>
    </vehicle>
    <vehicle id="106" type="passenger" depart="212.00">
        <route edges="-E5 -E4 -E13 E14"/>
    </vehicle>
    <vehicle id="107" type="passenger" depart="214.00">
        <route edges="E4 E6 E7 E9"/>
    </vehicle>
    <vehicle id="108" type="passenger" depart="216.00">
        <route edges="-E8 -E7 -E6 E5"/>
    </vehicle>
    <vehicle id="109" type="passenger" depart="218.00">
        <route edges="-E14 E11 E12 E1"/>
    </vehicle>
    <vehicle id="110" type="passenger" depart="220.00">
        <route edges="E6 E7 E10 E11 E12 E1 E2"/>
    </vehicle>
    <vehicle id="111" type="passenger" depart="222.00">
        <route edges="-E8 -E7 -E6 E5"/>
    </vehicle>
    <vehicle id="112" type="passenger" depart="224.00">
        <route edges="-E11 E13 -E3 E2"/>
    </vehicle>
    <vehicle id="113" type="passenger" depart="226.00">
        <route edges="-E8 -E7 -E6 -E4 -E13 -E10 E8"/>
    </vehicle>
    <vehicle id="114" type="passenger" depart="228.00">
        <route edges="-E14 -E10 E9"/>
    </vehicle>
    <vehicle id="115" type="passenger" depart="230.00">
        <route edges="-E12"/>
    </vehicle>
    <vehicle id="116" type="passenger" depart="232.00">
        <route edges="-E8 -E7 -E6 E5"/>
    </vehicle>
    <vehicle id="117" type="passenger" depart="234.00">
        <route edges="-E2 -E1"/>
    </vehicle>
    <vehicle id="118" type="passenger" depart="236.00">
        <route edges="E12 E1 E3 -E13 -E10 -E7 -E6 -E4"/>
    </vehicle>
    <vehicle id="119" type="passenger" depart="238.00">
        <route edges="-E8 E10 E11 E12 E1 E3"/>
    </vehicle>
    <vehicle id="120" type="passenger" depart="240.00">
        <route edges="-E5 -E4 -E3 E2"/>
    </vehicle>
    <vehicle id="121" type="passenger" depart="242.00">
        <route edges="-E8 E9"/>
    </vehicle>
    <vehicle id="122" type="passenger" depart="244.00">
        <route edges="-E14 E13 E4 E5"/>
    </vehicle>
    <vehicle id="123" type="passenger" depart="246.00">
        <route edges="-E2 -E1 -E12 -E11 E13"/>
    </vehicle>
    <vehicle id="124" type="passenger" depart="248.00">
        <route edges="-E9 E10 E11 E12 E1"/>
    </vehicle>
    <vehicle id="125" type="passenger" depart="250.00">
        <route edges="-E3 -E1 -E12 -E11 E13 E4 E6"/>
    </vehicle>
    <vehicle id="126" type="passenger" depart="252.00">
        <route edges="-E12 -E11 E14"/>
    </vehicle>
    <vehicle id="127" type="passenger" depart="254.00">
        <route edges="E7 E9"/>
    </vehicle>
    <vehicle id="128" type="passenger" depart="256.00">
        <route edges="-E12 -E11 E13 -E3"/>
    </vehicle>
    <vehicle id="129" type="passenger" depart="258.00">
        <route edges="-E2 E3 E4 E6 E7 E9"/>
    </vehicle>
    <vehicle id="130" type="passenger" depart="260.00">
        <route edges="E12 E1 E3 E4 E6 E7 E8"/>
    </vehicle>
    <vehicle id="131" type="passenger" depart="262.00">
        <route edges="-E5 -E4 -E3 -E1 -E12 -E11"/>
    </vehicle>
    <vehicle id="132" type="passenger" depart="264.00">
        <route edges="E10 E13 E4 E5"/>
    </vehicle>
    <vehicle id="133" type="passenger" depart="266.00">
        <route edges="-E9 -E7 -E6 -E4 -E13 -E10 E9"/>
    </vehicle>
    <vehicle id="134" type="passenger" depart="268.00">
        <route edges="-E9 E10 E11 E12 -E0"/>
    </vehicle>
    <vehicle id="135" type="passenger" depart="270.00">
        <route edges="E1"/>
    </vehicle>
    <vehicle id="136" type="passenger" depart="272.00">
        <route edges="-E9 -E7 -E6 -E4 -E13 -E10 E9"/>
    </vehicle>
    <vehicle id="137" type="passenger" depart="274.00">
        <route edges="-E14 E13 -E3 -E1"/>
    </vehicle>
    <vehicle id="138" type="passenger" depart="276.00">
        <route edges="-E14 E11 E12 E1 E2"/>
    </vehicle>
    <vehicle id="139" type="passenger" depart="278.00">
        <route edges="-E2 E3"/>
    </vehicle>
    <vehicle id="140" type="passenger" depart="280.00">
        <route edges="E0 E1 E3 -E13"/>
    </vehicle>
    <vehicle id="141" type="passenger" depart="282.00">
        <route edges="-E9 -E7 -E6"/>
    </vehicle>
    <vehicle id="142" type="passenger" depart="284.00">
        <route edges="-E7 -E6 -E4 -E13 -E10 E9"/>
    </vehicle>
    <vehicle id="143" type="passenger" depart="286.00">
        <route edges="E10 E11 E12 -E0"/>
    </vehicle>
    <vehicle id="144" type="passenger" depart="288.00">
        <route edges="-E5 -E4 -E13 -E10 -E7"/>
    </vehicle>
    <vehicle id="145" type="passenger" depart="290.00">
        <route edges="-E1 -E12 -E11 E13 E4 E6 E7"/>
    </vehicle>
    <vehicle id="146" type="passenger" depart="292.00">
        <route edges="-E9 -E7 -E6"/>
    </vehicle>
    <vehicle id="147" type="passenger" depart="294.00">
        <route edges="E0 E1 E2"/>
    </vehicle>
    <vehicle id="148" type="passenger" depart="296.00">
        <route edges="-E5 -E4 -E3 -E1 -E0"/>
    </vehicle>
    <vehicle id="149" type="passenger" depart="298.00">
        <route edges="-E12 -E11 -E10 E8"/>
    </vehicle>
    <vehicle id="150" type="passenger" depart="300.00">
        <route edges="E13 -E3 E2"/>
    </vehicle>
    <vehicle id="151" type="passenger" depart="302.00">
        <route edges="E10 E11 E12 E1 E2"/>
    </vehicle>
    <vehicle id="152" type="passenger" depart="304.00">
        <route edges="-E14 -E10"/>
    </vehicle>
    <vehicle id="153" type="passenger" depart="306.00">
        <route edges="-E2 E3 E4 E6 E7 E9"/>
    </vehicle>
    <vehicle id="154" type="passenger" depart="308.00">
        <route edges="E0 -E12 -E11 -E10 E8"/>
    </vehicle>
    <vehicle id="155" type="passenger" depart="310.00">
        <route edges="E13 -E3"/>
    </vehicle>
    <vehicle id="156" type="passenger" depart="312.00">
        <route edges="-E2 -E1 -E0"/>
    </vehicle>
    <vehicle id="157" type="passenger" depart="314.00">
        <route edges="E0 -E12 -E11 -E10 E8"/>
    </vehicle>
    <vehicle id="158" type="passenger" depart="316.00">
        <route edges="-E5 -E4 -E13 E11 E12 E1 E3"/>
    </vehicle>
    <vehicle id="159" type="passenger" depart="318.00">
        <route edges="-E14 -E10 E9"/>
    </vehicle>
    <vehicle id="160" type="passenger" depart="320.00">
        <route edges="E11 E12 E1 E3 E4 E6 E7 E9"/>
    </vehicle>
    <vehicle id="161" type="passenger" depart="322.00">
        <route edges="E0 -E12 -E11 -E10 E8"/>
    </vehicle>
    <vehicle id="162" type="passenger" depart="324.00">
        <route edges="-E10 -E7 -E6 E5"/>
    </vehicle>
    <vehicle id="163" type="passenger" depart="326.00">
        <route edges="-E3 -E1 -E12 -E11 -E10 E9"/>
    </vehicle>
    <vehicle id="164" type="passenger" depart="328.00">
        <route edges="E0 -E12 -E11 -E10 E8"/>
    </vehicle>
    <vehicle id="165" type="passenger" depart="330.00">
        <route edges="E0 -E12 -E11 -E10 -E7 -E6"/>
    </vehicle>
    <vehicle id="166" type="passenger" depart="332.00">
        <route edges="E0 -E12 -E11 E13 -E3 -E1"/>
    </vehicle>
    <vehicle id="167" type="passenger" depart="334.00">
        <route edges="E11 E12 E1 E3 E4 E6 E7 E8"/>
    </vehicle>
    <vehicle id="168" type="passenger" depart="336.00">
        <route edges="-E2 E3 E4 E6 E7 E8"/>
    </vehicle>
    <vehicle id="169" type="passenger" depart="338.00">
        <route edges="-E6 -E4 -E13 E11 E12 E1"/>
    </vehicle>
    <vehicle id="170" type="passenger" depart="340.00">
        <route edges="E0 -E12 -E11 E13 -E3"/>
    </vehicle>
    <vehicle id="171" type="passenger" depart="342.00">
        <route edges="-E10 -E7 -E6 -E4 -E13"/>
    </vehicle>
    <vehicle id="172" type="passenger" depart="344.00">
        <route edges="-E3 -E1 -E12 -E11 -E10 E8"/>
    </vehicle>
    <vehicle id="173" type="passenger" depart="346.00">
        <route edges="E6 E7 E10 E13 -E3 -E1 -E12 -E11 -E10 -E7"/>
    </vehicle>
    <vehicle id="174" type="passenger" depart="348.00">
        <route edges="-E9 E10 E14"/>
    </vehicle>
    <vehicle id="175" type="passenger" depart="350.00">
        <route edges="E7 E10 E11 E12 E1 E2"/>
    </vehicle>
    <vehicle id="176" type="passenger" depart="352.00">
        <route edges="E4 E6 E7 E10 E13 -E3 -E1"/>
    </vehicle>
    <vehicle id="177" type="passenger" depart="354.00">
        <route edges="E6 E7 E10 E13 -E3 -E1 -E12"/>
    </vehicle>
    <vehicle id="178" type="passenger" depart="356.00">
        <route edges="E6 E7 E10 E13 -E3 -E1 -E12 -E11 -E10 -E7 -E6"/>
    </vehicle>
    <vehicle id="179" type="passenger" depart="358.00">
        <route edges="-E14 -E10 -E7 -E6 -E4 -E13 E14"/>
    </vehicle>
    <vehicle id="180" type="passenger" depart="360.00">
        <route edges="E0 E1 E3 E4 E6 E7 E10"/>
    </vehicle>
    <vehicle id="181" type="passenger" depart="362.00">
        <route edges="-E9 -E7 -E6 -E4 -E3 E2"/>
    </vehicle>
    <vehicle id="182" type="passenger" depart="364.00">
        <route edges="-E5 -E4 -E3 E2"/>
    </vehicle>
    <vehicle id="183" type="passenger" depart="366.00">
        <route edges="-E2 E3 E4 E5"/>
    </vehicle>
    <vehicle id="184" type="passenger" depart="368.00">
        <route edges="-E1 -E12 -E11 -E10 E9"/>
    </vehicle>
    <vehicle id="185" type="passenger" depart="370.00">
        <route edges="-E8 -E7 -E6 E5"/>
    </vehicle>
    <vehicle id="186" type="passenger" depart="372.00">
        <route edges="E0 E1 E3 E4 E5"/>
    </vehicle>
    <vehicle id="187" type="passenger" depart="374.00">
        <route edges="-E5 -E4 -E3 -E1 -E0"/>
    </vehicle>
    <vehicle id="188" type="passenger" depart="376.00">
        <route edges="-E9 E10"/>
    </vehicle>
    <vehicle id="189" type="passenger" depart="378.00">
        <route edges="-E3 -E1 -E12 -E11 -E10 E8"/>
    </vehicle>
    <vehicle id="190" type="passenger" depart="380.00">
        <route edges="E0 E1"/>
    </vehicle>
    <vehicle id="191" type="passenger" depart="382.00">
        <route edges="-E2 -E1 -E12 -E11 E14"/>
    </vehicle>
    <vehicle id="192" type="passenger" depart="384.00">
        <route edges="-E5 -E4 -E13 E11 E12 E1"/>
    </vehicle>
    <vehicle id="193" type="passenger" depart="386.00">
        <route edges="-E14 -E10 -E7 -E6 -E4 -E13 E14"/>
    </vehicle>
    <vehicle id="194" type="passenger" depart="388.00">
        <route edges="E4 E5"/>
    </vehicle>
    <vehicle id="195" type="passenger" depart="390.00">
        <route edges="E13 E4 E6 E7 E10 E11 E12 E1 E3"/>
    </vehicle>
    <vehicle id="196" type="passenger" depart="392.00">
        <route edges="-E2 -E1 -E12 -E11 E13 -E3 E2"/>
    </vehicle>
    <vehicle id="197" type="passenger" depart="394.00">
        <route edges="-E1 -E12 -E11 -E10 -E7"/>
    </vehicle>
    <vehicle id="198" type="passenger" depart="396.00">
        <route edges="-E5 -E4 -E3 E2"/>
    </vehicle>
    <vehicle id="199" type="passenger" depart="398.00">
        <route edges="-E9 E10 E14"/>
    </vehicle>
    <vehicle id="200" type="passenger" depart="400.00">
        <route edges="-E5 -E4 -E3"/>
    </vehicle>
    <vehicle id="201" type="passenger" depart="402.00">
        <route edges="-E6 -E4 -E13 -E10 E9"/>
    </vehicle>
    <vehicle id="202" type="passenger" depart="404.00">
        <route edges="E0 -E12"/>
    </vehicle>
    <vehicle id="203" type="passenger" depart="406.00">
        <route edges="-E13 E11 E12 E1 E2"/>
    </vehicle>
    <vehicle id="204" type="passenger" depart="408.00">
        <route edges="-E9 E10 E11"/>
    </vehicle>
    <vehicle id="205" type="passenger" depart="410.00">
        <route edges="E1 E3 E4 E6"/>
    </vehicle>
    <vehicle id="206" type="passenger" depart="412.00">
        <route edges="-E9 -E7 -E6 -E4 -E3"/>
    </vehicle>
    <vehicle id="207" type="passenger" depart="414.00">
        <route edges="-E14 E11 E12 -E0"/>
    </vehicle>
    <vehicle id="208" type="passenger" depart="416.00">
        <route edges="-E2 -E1 -E12 -E11 E14"/>
    </vehicle>
    <vehicle id="209" type="passenger" depart="418.00">
        <route edges="E10 E11 E12 -E0"/>
    </vehicle>
    <vehicle id="210" type="passenger" depart="420.00">
        <route edges="-E5 E6 E7 E10 E13 E4"/>
    </vehicle>
    <vehicle id="211" type="passenger" depart="422.00">
        <route edges="-E14 E13 E4 E5"/>
    </vehicle>
    <vehicle id="212" type="passenger" depart="424.00">
        <route edges="-E7 -E6 -E4"/>
    </vehicle>
    <vehicle id="213" type="passenger" depart="426.00">
        <route edges="-E9 E10 E11 E12 -E0"/>
    </vehicle>
    <vehicle id="214" type="passenger" depart="428.00">
        <route edges="E0 E1 E3 E4 E6"/>
    </vehicle>
    <vehicle id="215" type="passenger" depart="430.00">
        <route edges="-E14 -E10 -E7 -E6 -E4 -E13 E14"/>
    </vehicle>
    <vehicle id="216" type="passenger" depart="432.00">
        <route edges="-E14 -E10 E9"/>
    </vehicle>
    <vehicle id="217" type="passenger" depart="434.00">
        <route edges="-E8 E10 E11 E12 -E0"/>
    </vehicle>
    <vehicle id="218" type="passenger" depart="436.00">
        <route edges="-E2 E3 E4 E6 E7 E8"/>
    </vehicle>
    <vehicle id="219" type="passenger" depart="438.00">
        <route edges="-E5 E6 E7 E8"/>
    </vehicle>
    <vehicle id="220" type="passenger" depart="440.00">
        <route edges="-E9 -E7 -E6 -E4 -E13 -E10 E9"/>
    </vehicle>
    <vehicle id="221" type="passenger" depart="442.00">
        <route edges="-E8 E9"/>
    </vehicle>
    <vehicle id="222" type="passenger" depart="444.00">
        <route edges="E12 E1 E3"/>
    </vehicle>
    <vehicle id="223" type="passenger" depart="446.00">
        <route edges="E0 E1 E2"/>
    </vehicle>
    <vehicle id="224" type="passenger" depart="448.00">
        <route edges="E1 E2"/>
    </vehicle>
    <vehicle id="225" type="passenger" depart="450.00">
        <route edges="E13 E4 E5"/>
    </vehicle>
    <vehicle id="226" type="passenger" depart="452.00">
        <route edges="-E6"/>
    </vehicle>
    <vehicle id="227" type="passenger" depart="454.00">
        <route edges="-E2 E3 E4"/>
    </vehicle>
    <vehicle id="228" type="passenger" depart="456.00">
        <route edges="E0 E1 E2"/>
    </vehicle>
    <vehicle id="229" type="passenger" depart="458.00">
        <route edges="-E9 -E7"/>
    </vehicle>
    <vehicle id="230" type="passenger" depart="460.00">
        <route edges="-E12 -E11 -E10 -E7"/>
    </vehicle>
    <vehicle id="231" type="passenger" depart="462.00">
        <route edges="-E2 E3 E4 E6 E7 E10"/>
    </vehicle>
    <vehicle id="232" type="passenger" depart="464.00">
        <route edges="-E8 -E7 -E6 -E4 -E13 -E10"/>
    </vehicle>
    <vehicle id="233" type="passenger" depart="466.00">
        <route edges="-E2 E3 E4 E5"/>
    </vehicle>
    <vehicle id="234" type="passenger" depart="468.00">
        <route edges="-E9 E10 E11 E12 -E0"/>
    </vehicle>
    <vehicle id="235" type="passenger" depart="470.00">
        <route edges="-E5 -E4 -E3 E2"/>
    </vehicle>
    <vehicle id="236" type="passenger" depart="472.00">
        <route edges="-E5 -E4 -E13"/>
    </vehicle>
    <vehicle id="237" type="passenger" depart="474.00">
        <route edges="-E5 E6 E7 E9"/>
    </vehicle>
    <vehicle id="238" type="passenger" depart="476.00">
        <route edges="-E8 -E7 -E6 E5"/>
    </vehicle>
    <vehicle id="239" type="passenger" depart="478.00">
        <route edges="E11 E12 E1 E3 E4 E6"/>
    </vehicle>
    <vehicle id="240" type="passenger" depart="480.00">
        <route edges="-E5 -E4 -E3 -E1 -E0"/>
    </vehicle>
    <vehicle id="241" type="passenger" depart="482.00">
        <route edges="-E4 -E3 -E1 -E12 -E11 E13 E4 E6"/>
    </vehicle>
    <vehicle id="242" type="passenger" depart="484.00">
        <route edges="E10 E13 E4 E6 E7 E9"/>
    </vehicle>
    <vehicle id="243" type="passenger" depart="486.00">
        <route edges="-E5 -E4 -E13 -E10 -E7 -E6 E5"/>
    </vehicle>
    <vehicle id="244" type="passenger" depart="488.00">
        <route edges="-E8 E10 E11 E12 E1 E2"/>
    </vehicle>
    <vehicle id="245" type="passenger" depart="490.00">
        <route edges="-E2 -E1 -E12 -E11 E13 -E3"/>
    </vehicle>
    <vehicle id="246" type="passenger" depart="492.00">
        <route edges="-E5 -E4 -E3 -E1 -E0"/>
    </vehicle>
    <vehicle id="247" type="passenger" depart="494.00">
        <route edges="-E4 -E13 -E10 -E7 -E6 E5"/>
    </vehicle>
    <vehicle id="248" type="passenger" depart="496.00">